CRYSTAL
PRIMVEC
 9.86398064105027 0.00000000000000 0.00000000000000
 0.00000000000000 29.99999507430976 0.00000000000000
 0.00000000000000 0.00000000000000 15.50000271584972
PRIMCOORD
 46 1
  6     0.71187149000000     2.92123941900000     5.00000000000000     0.00000000000000     0.00000000000000     0.00000000000000
  6     0.71459430800000     4.36690057700000     5.00000826200000    -0.00064564377963    -0.00130560223358    -0.00000087872258
  6     1.94486908000000     2.20936792800000     5.00000000000000     0.00000000000000     0.00000000000000     0.00000000000000
  6     1.95065072100000     5.07529461500000     5.00000713200000     0.00006289952937     0.00213191326589    -0.00000015117808
  6     3.17786667000000     2.92123941900000     5.00000000000000     0.00000000000000     0.00000000000000     0.00000000000000
  6     3.18156273600000     4.36887816800000     5.00000242600000     0.00050943233072    -0.00098487793961     0.00000069919861
  6     4.41086426000000     2.20936792800000     5.00000000000000     0.00000000000000     0.00000000000000     0.00000000000000
  6     4.41072601600000     5.08723116500000     5.00000258400000    -0.00010843247695     0.00319190781336    -0.00000066140409
  6     5.64386185000000     2.92123941900000     5.00000000000000     0.00000000000000     0.00000000000000     0.00000000000000
  6     5.63943769900000     4.36822806900000     5.00000191500000     0.00077428687598    -0.00081083417650    -0.00000007558904
  6     6.87685944000000     2.20936792800000     5.00000000000000     0.00000000000000     0.00000000000000     0.00000000000000
  6     6.87079401600000     5.07387153900000     5.00000847400000    -0.00011179618920     0.00294025300410    -0.00000051022602
  6     8.10985703000000     2.92123941900000     5.00000000000000     0.00000000000000     0.00000000000000     0.00000000000000
  6     8.10718515900000     4.36656318100000     5.00000832900000    -0.00024418094300    -0.00149602992097    -0.00000039684246
  6     9.34285462000000     2.20936792800000     5.00000000000000     0.00000000000000     0.00000000000000     0.00000000000000
  6     9.34274851600000     5.07314072800000     5.00000901700000     0.00029225557203     0.00245502806324     0.00000018897260
  6     0.72321967700000     7.20921753000000     4.99999757700000    -0.00719389391284     0.01738091536280    -0.00000067085272
  6     0.72118098400000     8.64893159000000     4.99997803300000     0.00047750541022     0.01347741233297    -0.00000089761984
  6     1.95696093500000     6.51347816100000     5.00000674700000    -0.00217068099445     0.00148668522598    -0.00000003779452
  6     1.93494267100000     9.41634233300000     4.99997111700000    -0.01375737523747     0.00015988971549    -0.00000016062671
  6     3.17788672400000     7.25098624600000     5.00000896300000     0.00106444485216     0.00344553738628    -0.00000001889726
  6     3.17845213300000     8.70628916200000     4.99999603600000    -0.00411187366543     0.00079561243370    -0.00000160626709
  6     4.41049362500000     6.53650502000000     5.00000641000000     0.00074180248631    -0.00074147178427     0.00000124721915
  6     4.41186253800000     9.42353575800000     4.99998610700000     0.00872798291512    -0.00743777249968    -0.00000856045871
  6     5.64458791800000     7.25104773400000     5.00000991600000     0.00298190256478     0.00822760237187    -0.00000000000000
  6     5.65182808200000     8.70879350500000     5.00000043100000     0.00060629023602     0.00508866357783    -0.00000032125342
  6     6.86546985800000     6.51270271500000     5.00000478800000     0.00011083242895    -0.00109996225203     0.00000041573972
  6     6.89221884500000     9.43110837300000     4.99998173600000    -0.00094436221452    -0.00037871998442    -0.00000714316422
  6     8.09821411700000     7.20758018200000     4.99999470500000     0.00361160650574     0.01753513590034    -0.00000067085272
  6     8.09424634800000     8.64631876800000     4.99997740100000     0.00039671017578     0.02208978181240     0.00000111493833
  6     9.34289389800000     6.50977381000000     5.00000270700000     0.00091954066372    -0.00487365055539    -0.00000185193146
  6     9.33754391500000     9.33176691000000     4.99996967900000     0.00503807561325    -0.01709241089685     0.00000167240750
  1     1.94450233900000     1.10952337400000     5.00000000000000     0.00000000000000     0.00000000000000     0.00000000000000
  1     4.41049752000000     1.10952337400000     5.00000000000000     0.00000000000000     0.00000000000000     0.00000000000000
  1     6.87649270100000     1.10952337400000     5.00000000000000     0.00000000000000     0.00000000000000     0.00000000000000
  1     9.34248788200000     1.10952337400000     5.00000000000000     0.00000000000000     0.00000000000000     0.00000000000000
  6     0.62378346100000    11.55171970700000     4.99996241200000    -0.01014637344405    -0.02293221220736     0.00000867384227
 78     9.29591906400000    13.18379115600000     4.99997448100000     0.01059931241648    -0.01912626628144    -0.00000834314022
  1     3.21114178300000    12.65905647800000     4.99985043000000    -0.00038928355266     0.00104658694161    -0.00000014172945
  6     8.18587098800000    11.53942194500000     4.99996596200000    -0.00203282548393    -0.00025260912089     0.00000988326690
  6     3.17808789200000    11.56377033700000     4.99989692200000    -0.00616644044681    -0.01154565884328     0.00000520619509
  6     9.32796340200000    10.74993568800000     4.99997114000000     0.03208584645170    -0.03915540584343     0.00000093541436
  6     1.91771857200000    10.90187070000000     4.99993893800000     0.00538524662236     0.01570478510694    -0.00000484714715
  6     6.89358958100000    10.95688275400000     4.99995288800000    -0.02551713058609    -0.02203349632398     0.00000714316422
  6     5.64749732700000    11.63646747700000     4.99991207500000    -0.00061009803387    -0.01997007617636    -0.00001020452031
  6     4.42471731300000    10.87957701100000     4.99992908000000    -0.00006905058745     0.01223287659455     0.00000982657512
