CRYSTAL
PRIMVEC
     9.8639806455    0.0000000000    0.0000000000
     0.0000000000   29.9999950877    0.0000000000
     0.0000000000    0.0000000000   15.5000027228
PRIMCOORD
 49 1
         0.0000000000     0.0000000000     0.0000000000      0.0013521100    -0.0436278600     0.0009346500
         0.0000000000     0.0000000000     0.0000000000     -0.0001662200    -0.0006521100    -0.0000398300
         0.0000000000     0.0000000000     0.0000000000      0.0000997200     0.0328797800     0.0000105300
         0.0000000000     0.0000000000     0.0000000000      0.0001040600     0.0003755500     0.0000526400
         0.0000000000     0.0000000000     0.0000000000     -0.0028731300    -0.0447391900     0.0002368300
         0.0000000000     0.0000000000     0.0000000000     -0.0002688200    -0.0005068400    -0.0000219500
         0.0000000000     0.0000000000     0.0000000000     -0.0001152800     0.0334277300     0.0002674600
         0.0000000000     0.0000000000     0.0000000000      0.0000184700     0.0007235000    -0.0000092800
         0.0000000000     0.0000000000     0.0000000000     -0.0003707700    -0.0480703500    -0.0010915000
         0.0000000000     0.0000000000     0.0000000000      0.0002751300    -0.0005371200     0.0000139800
         0.0000000000     0.0000000000     0.0000000000     -0.0002455400     0.0333504700     0.0004351600
         0.0000000000     0.0000000000     0.0000000000     -0.0001064800     0.0002789600    -0.0000926900
         0.0000000000     0.0000000000     0.0000000000      0.0020768400    -0.0451986100    -0.0014791600
         0.0000000000     0.0000000000     0.0000000000      0.0001280500    -0.0007173900    -0.0000060500
         0.0000000000     0.0000000000     0.0000000000     -0.0000286100     0.0323362900     0.0002465900
         0.0000000000     0.0000000000     0.0000000000     -0.0000234400    -0.0000101900    -0.0000140000
         0.0000000000     0.0000000000     0.0000000000      0.0000518200     0.0007384700     0.0001166200
         0.0000000000     0.0000000000     0.0000000000      0.0003451600    -0.0007715100    -0.0004875900
         0.0000000000     0.0000000000     0.0000000000      0.0004083500    -0.0003602200    -0.0000452300
         0.0000000000     0.0000000000     0.0000000000      0.0004884000    -0.0000826500    -0.0001548800
         0.0000000000     0.0000000000     0.0000000000     -0.0001781800     0.0000352000     0.0000973400
         0.0000000000     0.0000000000     0.0000000000     -0.0001767300    -0.0001056800    -0.0000502700
         0.0000000000     0.0000000000     0.0000000000      0.0000543000    -0.0006039800    -0.0000328700
         0.0000000000     0.0000000000     0.0000000000      0.0000290100     0.0004765700    -0.0001101200
         0.0000000000     0.0000000000     0.0000000000      0.0001225700    -0.0000170300    -0.0001740800
         0.0000000000     0.0000000000     0.0000000000      0.0000762600    -0.0000355400    -0.0000666900
         0.0000000000     0.0000000000     0.0000000000     -0.0003554000    -0.0003029500     0.0000185700
         0.0000000000     0.0000000000     0.0000000000     -0.0002783600     0.0000856200    -0.0004414600
         0.0000000000     0.0000000000     0.0000000000     -0.0000592700     0.0004445800     0.0000043300
         0.0000000000     0.0000000000     0.0000000000     -0.0001075300    -0.0002767500    -0.0000767100
         0.0000000000     0.0000000000     0.0000000000     -0.0000697600    -0.0003059100    -0.0000322600
         0.0000000000     0.0000000000     0.0000000000      0.0003219400    -0.0054732100    -0.0011279400
         0.0000000000     0.0000000000     0.0000000000      0.0000035700     0.0099576900    -0.0001126300
         0.0000000000     0.0000000000     0.0000000000     -0.0000746100     0.0100153600     0.0001259700
         0.0000000000     0.0000000000     0.0000000000      0.0001633800     0.0100657100     0.0003247300
         0.0000000000     0.0000000000     0.0000000000      0.0002157200     0.0100127100     0.0000840200
         0.0000000000     0.0000000000     0.0000000000     -0.0005100100     0.0022529400     0.0004432300
         0.0000000000     0.0000000000     0.0000000000     -0.0039673600    -0.0015832400     0.0015026100
         0.0000000000     0.0000000000     0.0000000000     -0.0001157000     0.0056508600     0.0010334500
         0.0000000000     0.0000000000     0.0000000000      0.0015642600     0.0031748300    -0.0040623800
         0.0000000000     0.0000000000     0.0000000000     -0.0009673300     0.0016627500    -0.0037342100
         0.0000000000     0.0000000000     0.0000000000     -0.0000544200    -0.0050044000    -0.0006515400
         0.0000000000     0.0000000000     0.0000000000     -0.0000180000     0.0015520100    -0.0002580000
         0.0000000000     0.0000000000     0.0000000000     -0.0011174100    -0.0050110400     0.0003548800
         0.0000000000     0.0000000000     0.0000000000      0.0004242600     0.0058048400    -0.0018459800
         0.0000000000     0.0000000000     0.0000000000      0.0028608400     0.0050479300     0.0084662800
         0.0000000000     0.0000000000     0.0000000000      0.0021387600     0.0008768600     0.0010723600
         0.0000000000     0.0000000000     0.0000000000     -0.0001430600    -0.0049965100     0.0004493600
         0.0000000000     0.0000000000     0.0000000000     -0.0009316000     0.0077630800    -0.0000723000
