CRYSTAL
PRIMVEC
     8.5428654021    0.0000000000    0.0000000000
     0.0000000000   29.9999975181    0.0000000000
     0.0000000000    0.0000000000   15.4999955853
 PRIMCOORD
43 1
    C       1.4237428422     2.9949927784     4.9999998711       0.0856885000     0.0093947000    -0.0000004700
    C       2.8474856844     2.9949927784     4.9999998711      -0.0848781100     0.0084284800    -0.0000005400
    C       0.7118718482     4.2279905219     4.9999998711       0.0198196000    -0.0192164400     0.0000019400
    C       3.5593575326     4.2279905219     4.9999998711      -0.0214647300    -0.0244418000     0.0000013000
    C       1.4219872833     5.4558343547     5.0000152483       0.0001280400    -0.0001591700    -0.0000003800
    C       2.8455883140     5.4518106651     5.0000135397      -0.0001559400    -0.0000869100     0.0000001000
    C       0.7085264621     6.6985880505     5.0000212283      -0.0000881400     0.0001022400    -0.0000007300
    C       3.5609567570     6.6868313591     5.0000203740       0.0001833000     0.0000115300     0.0000004200
    C       1.4190673319     7.9347765542     5.0000109768      -0.0000521900    -0.0001066100    -0.0000001600
    C       2.8461683745     7.9190995419     5.0000161026       0.0000613600     0.0001661800    -0.0000003500
    C       0.7120743141     9.1734826403     4.9999896197      -0.0001040000     0.0000316500     0.0000005900
    C       3.5496861547     9.1437201515     5.0000024340       0.0001019800    -0.0001727700    -0.0000011200
    C       1.4034919797    10.4246664357     4.9999708254       0.0001876600     0.0003471200     0.0000003500
    C       2.8272630134    10.3756500368     4.9999793682      -0.0000042100     0.0006571900     0.0000002000
    C       5.6949713687     2.9949927784     4.9999998711       0.0839274100     0.0089519600    -0.0000008500
    C       7.1187150652     2.9949927784     4.9999998711      -0.0845783400     0.0099743400    -0.0000009700
    C       4.9831003748     4.2279905219     4.9999998711       0.0217437100    -0.0268625900     0.0000018300
    C       7.8305860591     4.2279905219     4.9999998711      -0.0202539400    -0.0214173600     0.0000026800
    C       5.6967747676     5.4505300895     5.0000143940       0.0001839500    -0.0001135100    -0.0000003000
    C       7.1198239291     5.4558343547     5.0000161026      -0.0001441700    -0.0001481600    -0.0000014500
    C       4.9809082755     6.6847400656     5.0000195197      -0.0001410500     0.0001090200    -0.0000002800
    C       7.8331301245     6.6979447727     5.0000195197       0.0000974400     0.0000926000     0.0000000600
    C       5.6942221594     7.9144197602     5.0000084140       0.0001142200     0.0000077200     0.0000009500
    C       7.1238236987     7.9349773115     5.0000067054      -0.0000709500    -0.0000537000     0.0000007000
    C       4.9797216715     9.1372805396     4.9999981625       0.0002228800     0.0001244800    -0.0000003700
    C       7.8377501061     9.1734553031     4.9999887654      -0.0000704300    -0.0001518200    -0.0000000000
    C       5.7107227040    10.3534291896     4.9999776597      -0.0001544500    -0.0011049700    -0.0000000300
    C       7.1469483811    10.4243418068     4.9999733882      -0.0005257600    -0.0000519300     0.0000000900
    H       0.9051131722     2.0292124475     4.9999998711       0.0084028500     0.0112108000    -0.0000000900
    H       3.3661153543     2.0292124475     4.9999998711      -0.0085167300     0.0110891200    -0.0000000100
    H       5.1763416987     2.0292124475     4.9999998711       0.0085405400     0.0110285000    -0.0000001100
    H       7.6373447352     2.0292124475     4.9999998711      -0.0084224700     0.0112095800    -0.0000001000
   Pt       6.0330441613    13.1075217066     4.9999733882       0.0040062900     0.0059252200    -0.0000027700
    H       3.8837907863    14.6183983587     4.1136758771       0.0001887900    -0.0018649400     0.0039012700
    C       4.0215752452    13.9646863381     4.9999819311      -0.0040095100     0.0093483400     0.0000008600
    C       1.5445756933    12.8904423710     4.9999588654      -0.0019780200     0.0052318000     0.0000004100
    C       3.5685043786    11.5809586450     4.9999691168      -0.0004888400    -0.0003322800     0.0000000700
    H       3.8837976206    14.6183624787     5.8863161766       0.0001887000    -0.0018651300    -0.0039015200
    H       1.0301063988    13.8621762247     4.9999614282       0.0026582200    -0.0042918400    -0.0000003500
    C       7.7719315996    11.7313506647     4.9999631368       0.0018381500    -0.0019910700    -0.0000007300
    C       4.9861621377    11.5546363681     4.9999691168      -0.0008345500    -0.0020118200    -0.0000002900
    C       2.9518145738    12.8524650628     4.9999674082      -0.0011228900     0.0015518700    -0.0000008500
    C       0.6996683650    11.7048754705     4.9999571568      -0.0002241500     0.0014503600     0.0000010000
