CRYSTAL
PRIMVEC
 8.54286539824406 0.00000000000000 0.00000000000000
 0.00000000000000 29.99999750474448 0.00000000000000
 0.00000000000000 0.00000000000000 15.49999557840067
PRIMCOORD
 46 1
  6     1.42374284154634     2.99499277706454     4.99999986888626     0.08055618410082     0.01009935706157     0.00007804568313
  6     2.84748568309268     2.99499277706454     4.99999986888626    -0.07940775037731     0.00858747233960     0.00017143594125
  6     0.71187184791644     4.22799051999888     4.99999986888626     0.01818077967996    -0.01828332566048    -0.00018338845810
  6     3.55935753100911     4.22799051999888     4.99999986888626    -0.01999274343954    -0.02350181341340    -0.00024366126835
  6     1.42100143604004     5.45683899320930     4.99720976904719     0.00016208179763    -0.00013624924343     0.00003351429032
  6     2.84508086648307     5.45328174405747     4.99655538555769    -0.00017260757136    -0.00008737148086     0.00005806183085
  6     0.70681276302760     6.69888021345422     4.99160992077864     0.00008674787129     0.00014684115757    -0.00013157217162
  6     3.55971035135006     6.68791971714828     4.99027808806306     0.00003529063275     0.00007347254625    -0.00000522509235
  6     1.41618753138813     7.93540017979227     4.98533262328401    -0.00000292907527    -0.00017140759536     0.00007797954272
  6     2.84315872176847     7.92154279782977     4.98504472872009     0.00000639672246     0.00004191412232     0.00005241155016
  6     0.70752267514219     9.17477688031948     4.97178791019510    -0.00015074344173     0.00016692894478    -0.00002090981801
  6     3.54476033690314     9.14651451872247     4.98254764916419     0.00030556869158    -0.00008328967274     0.00009192572048
  6     1.39743679612553    10.42527382873559     4.95010013780858     0.00000732268819     0.00032474941032    -0.00023835113834
  6     2.82238503597956    10.38072534854336     4.97712890964208     0.00022123966955     0.00041631608286     0.00005466032408
  6     5.69497136618535     2.99499277706454     4.99999986888626     0.07946293037604     0.00876460580469     0.00008637937472
  6     7.11871506201823     2.99499277706454     4.99999986888626    -0.07994240110128     0.00935346331850     0.00015399377042
  6     4.98310037255545     4.22799051999888     4.99999986888626     0.01948291426637    -0.02573034836884    -0.00015865194497
  6     7.83058605564813     4.22799051999888     4.99999986888626    -0.01891778226228    -0.02112369719770    -0.00020802103630
  6     5.69592389567726     5.45039340126632     4.99708589749892     0.00018037434515    -0.00008932734725     0.00000629278753
  6     7.11891838221471     5.45549178333600     4.99634095963619    -0.00017054777004    -0.00012403216495     0.00004543846128
  6     4.97988569230609     6.68461960824493     4.99154072356892    -0.00013611696261     0.00014778602056     0.00000708647244
  6     7.83142667360332     6.69695123444730     4.98897188394367     0.00002762779388     0.00017380754736     0.00000470541770
  6     5.69242217515052     7.91347662432075     4.98336776424242     0.00009342805264    -0.00011133320634    -0.00006552624849
  6     7.12057398952889     7.93254259131655     4.98158572252034     0.00003117103010    -0.00012918166825     0.00009864369635
  6     4.97763721013328     9.13907197438752     4.97268918249461     0.00000053857191    -0.00000328812321     0.00002368771521
  6     7.83344193555076     9.17052509621077     4.97312999434916    -0.00009194461774    -0.00012218023348     0.00004898169750
  6     5.70283592807098    10.35315837618977     4.94972254315797     0.00002012558173    -0.00016728799272     0.00005158951936
  6     7.13358819067657    10.41597150260344     4.95441513912123     0.00015395597590     0.00032720605410     0.00009408000810
  1     0.90511317179780     2.02921244664111     4.99999986888626     0.00789407518436     0.01059312356388     0.00002546405763
  1     3.36611535284121     2.02921244664111     4.99999986888626    -0.00802589302036     0.01055612272912     0.00005404616314
  1     5.17634169643681     2.02921244664111     4.99999986888626     0.00806579458451     0.01041335393104     0.00002635222884
  1     7.63734473176677     2.02921244664111     4.99999986888626    -0.00799776444909     0.01059305742347     0.00005940353630
 78     6.05563405756842    13.16899616012811     5.01035894746817    -0.00107426197865    -0.00051752980656    -0.00042659619222
  1     3.81540087557913    14.76178351360182     4.22889093801186     0.00046573241734    -0.00272785725215     0.00322398591194
  6     3.99545201528560    13.95686790148695     4.96375847100729    -0.00425152441563     0.00744503849608     0.00087634152773
  6     1.53294372707247    12.89126846031773     4.86487053258991    -0.00122592193748     0.00476852509892    -0.00046331356808
  6     3.57107150804319    11.57982243871785     4.97213987624951    -0.00017055721867     0.00018634587926    -0.00007700633384
  1     3.99627213036383    14.42119313875847     5.97437346761378    -0.00047358422880    -0.00141361897082    -0.00450859328984
  1     1.01485909213634    13.85887269250369     4.81793346723234     0.00395123750818    -0.00509448393386     0.00021227291976
  6     7.76187835210967    11.71751976035291     4.95421438178437     0.00193135664723    -0.00368222556575    -0.00031048197914
  6     5.00154527323680    11.58209056948109     4.95814239129448    -0.00173599677503    -0.00369890239756    -0.00007130881000
  6     2.94784641150471    12.84556156757751     4.91290877329732    -0.00174795874050     0.00154355652947    -0.00004900059476
  6     0.69130660804325    11.70756561359088     4.90802396286260    -0.00031850386594     0.00111135729971    -0.00038384114183
  8     7.28256294892385    14.70580211664713     5.14894899853734     0.00363438715247     0.00742332554453     0.00030494508201
  8     6.71071122774425    15.88786217035790     5.78727104680760     0.00685138107827     0.00717545018723     0.00258161135826
  1     7.53581106793556    16.41353543262730     5.94121946128974    -0.00580110917099    -0.00343444469475    -0.00105787805437
