CRYSTAL
PRIMVEC
     9.8639806455    0.0000000000    0.0000000000
     0.0000000000   29.9999950877    0.0000000000
     0.0000000000    0.0000000000   15.5000027228
PRIMCOORD
 51 1
         0.0000000000     0.0000000000     0.0000000000     -0.0012696100    -0.0466298700     0.0006939100
         0.0000000000     0.0000000000     0.0000000000     -0.0004737400    -0.0004469600    -0.0000024600
         0.0000000000     0.0000000000     0.0000000000      0.0004951600     0.0339226600    -0.0004289700
         0.0000000000     0.0000000000     0.0000000000      0.0001813500     0.0004672100     0.0000167500
         0.0000000000     0.0000000000     0.0000000000     -0.0002950100    -0.0472940800     0.0005617600
         0.0000000000     0.0000000000     0.0000000000     -0.0000185000    -0.0003120700    -0.0000021800
         0.0000000000     0.0000000000     0.0000000000     -0.0001884000     0.0338662000    -0.0004176800
         0.0000000000     0.0000000000     0.0000000000     -0.0001491800     0.0004731500    -0.0000061300
         0.0000000000     0.0000000000     0.0000000000      0.0013655500    -0.0467682100     0.0006648900
         0.0000000000     0.0000000000     0.0000000000      0.0004660900    -0.0004210000    -0.0000078700
         0.0000000000     0.0000000000     0.0000000000     -0.0009219700     0.0338133100    -0.0004617300
         0.0000000000     0.0000000000     0.0000000000     -0.0001315400    -0.0001856700    -0.0000058200
         0.0000000000     0.0000000000     0.0000000000      0.0003494700    -0.0452445700     0.0008582900
         0.0000000000     0.0000000000     0.0000000000      0.0000231400    -0.0007109800     0.0000001700
         0.0000000000     0.0000000000     0.0000000000      0.0003280600     0.0338891100    -0.0004618200
         0.0000000000     0.0000000000     0.0000000000      0.0000975400    -0.0002041200    -0.0000190700
         0.0000000000     0.0000000000     0.0000000000     -0.0002618900    -0.0000325400    -0.0000482900
         0.0000000000     0.0000000000     0.0000000000     -0.0003920400     0.0001510600    -0.0000444200
         0.0000000000     0.0000000000     0.0000000000      0.0003220700    -0.0002829700    -0.0000151000
         0.0000000000     0.0000000000     0.0000000000      0.0000917700     0.0002900800    -0.0000853900
         0.0000000000     0.0000000000     0.0000000000     -0.0000376200    -0.0003247200    -0.0000484700
         0.0000000000     0.0000000000     0.0000000000     -0.0000328700     0.0001942800    -0.0000345400
         0.0000000000     0.0000000000     0.0000000000     -0.0002992900    -0.0002940700    -0.0000184500
         0.0000000000     0.0000000000     0.0000000000     -0.0000835700     0.0002991800    -0.0000596500
         0.0000000000     0.0000000000     0.0000000000      0.0002298800    -0.0000416200    -0.0000482000
         0.0000000000     0.0000000000     0.0000000000      0.0003764000     0.0001532900    -0.0000331700
         0.0000000000     0.0000000000     0.0000000000     -0.0003540100    -0.0000629000    -0.0000260700
         0.0000000000     0.0000000000     0.0000000000     -0.0001022300    -0.0002697400    -0.0000281100
         0.0000000000     0.0000000000     0.0000000000      0.0000277000     0.0005362800     0.0000480400
         0.0000000000     0.0000000000     0.0000000000      0.0000523300    -0.0002029200    -0.0000094400
         0.0000000000     0.0000000000     0.0000000000      0.0003168900    -0.0000580800    -0.0000194100
         0.0000000000     0.0000000000     0.0000000000     -0.0000076700    -0.0003409900     0.0000009300
         0.0000000000     0.0000000000     0.0000000000      0.0000567200     0.0100863900    -0.0001819700
         0.0000000000     0.0000000000     0.0000000000      0.0000970100     0.0100790300    -0.0001776400
         0.0000000000     0.0000000000     0.0000000000      0.0000957400     0.0100431600    -0.0002103000
         0.0000000000     0.0000000000     0.0000000000      0.0000540900     0.0100480300    -0.0002127200
         0.0000000000     0.0000000000     0.0000000000      0.0010997200     0.0003439500     0.0098121100
         0.0000000000     0.0000000000     0.0000000000     -0.0001141100     0.0057946200    -0.0000429100
         0.0000000000     0.0000000000     0.0000000000      0.0000214900    -0.0050720800    -0.0001046200
         0.0000000000     0.0000000000     0.0000000000      0.0002553500     0.0048387900    -0.0000292600
         0.0000000000     0.0000000000     0.0000000000     -0.0011663500     0.0004592500     0.0000089200
         0.0000000000     0.0000000000     0.0000000000      0.0008206500    -0.0058384800    -0.0004210700
         0.0000000000     0.0000000000     0.0000000000     -0.0008220000    -0.0058066200    -0.0004065100
         0.0000000000     0.0000000000     0.0000000000     -0.0004130700    -0.0037244500    -0.0028770600
         0.0000000000     0.0000000000     0.0000000000     -0.0003308400     0.0019058000     0.0000831700
         0.0000000000     0.0000000000     0.0000000000      0.0011359300     0.0005692700     0.0001851700
         0.0000000000     0.0000000000     0.0000000000      0.0005844100     0.0019060000     0.0001240000
         0.0000000000     0.0000000000     0.0000000000     -0.0004055100     0.0048415300    -0.0000423200
         0.0000000000     0.0000000000     0.0000000000     -0.0037056100     0.0074023500    -0.0035533200
         0.0000000000     0.0000000000     0.0000000000     -0.0002270800     0.0076839300    -0.0083382800
         0.0000000000     0.0000000000     0.0000000000      0.0032591800    -0.0034882000     0.0058723300
