CRYSTAL
PRIMVEC
     8.5428654021    0.0000000000    0.0000000000
     0.0000000000   29.9999975181    0.0000000000
     0.0000000000    0.0000000000   15.4999955853
PRIMCOORD
 47 1
         0.0000000000     0.0000000000     0.0000000000      0.0784270500     0.0134489600    -0.0002432400
         0.0000000000     0.0000000000     0.0000000000     -0.0788770600     0.0155277300    -0.0005533100
         0.0000000000     0.0000000000     0.0000000000      0.0240823200    -0.0287002800     0.0000073500
         0.0000000000     0.0000000000     0.0000000000     -0.0245047600    -0.0270612700     0.0010471100
         0.0000000000     0.0000000000     0.0000000000      0.0001700100    -0.0001986100    -0.0000124300
         0.0000000000     0.0000000000     0.0000000000     -0.0001624400    -0.0000936700    -0.0000301600
         0.0000000000     0.0000000000     0.0000000000      0.0000054800     0.0001413200    -0.0000554400
         0.0000000000     0.0000000000     0.0000000000     -0.0000088600     0.0000476100    -0.0000418300
         0.0000000000     0.0000000000     0.0000000000     -0.0000843500    -0.0001287400    -0.0000087600
         0.0000000000     0.0000000000     0.0000000000      0.0002218700     0.0000406700     0.0000163600
         0.0000000000     0.0000000000     0.0000000000     -0.0002086900     0.0000238300    -0.0000762500
         0.0000000000     0.0000000000     0.0000000000      0.0000510700    -0.0001628400     0.0000725900
         0.0000000000     0.0000000000     0.0000000000     -0.0001286500     0.0000570600     0.0002093600
         0.0000000000     0.0000000000     0.0000000000      0.0000034900     0.0007283500    -0.0001687100
         0.0000000000     0.0000000000     0.0000000000      0.0807040100     0.0127452900    -0.0006158700
         0.0000000000     0.0000000000     0.0000000000     -0.0803396900     0.0137306300    -0.0002316900
         0.0000000000     0.0000000000     0.0000000000      0.0239392600    -0.0268742300     0.0007728100
         0.0000000000     0.0000000000     0.0000000000     -0.0235075800    -0.0277941400     0.0004441200
         0.0000000000     0.0000000000     0.0000000000      0.0001764800    -0.0001096400     0.0000045500
         0.0000000000     0.0000000000     0.0000000000     -0.0002005200    -0.0000544200    -0.0000572000
         0.0000000000     0.0000000000     0.0000000000      0.0000045200     0.0000433500    -0.0000088100
         0.0000000000     0.0000000000     0.0000000000      0.0000587600     0.0000187500     0.0000057900
         0.0000000000     0.0000000000     0.0000000000     -0.0001198800    -0.0001424300    -0.0000495300
         0.0000000000     0.0000000000     0.0000000000      0.0000099700    -0.0000019900     0.0001414900
         0.0000000000     0.0000000000     0.0000000000      0.0002203100     0.0001396300     0.0000794800
         0.0000000000     0.0000000000     0.0000000000      0.0002507000    -0.0000943400     0.0001666900
         0.0000000000     0.0000000000     0.0000000000     -0.0006163000    -0.0008975700     0.0001754900
         0.0000000000     0.0000000000     0.0000000000     -0.0003348200     0.0000105900     0.0002311300
         0.0000000000     0.0000000000     0.0000000000      0.0082070400     0.0112107700    -0.0000189600
         0.0000000000     0.0000000000     0.0000000000     -0.0081404700     0.0111260200    -0.0001334300
         0.0000000000     0.0000000000     0.0000000000      0.0082512300     0.0111844500    -0.0001135500
         0.0000000000     0.0000000000     0.0000000000     -0.0081844800     0.0110917800    -0.0000671300
         0.0000000000     0.0000000000     0.0000000000     -0.0009747600    -0.0020767400     0.0007423500
         0.0000000000     0.0000000000     0.0000000000     -0.0008552500     0.0085739800    -0.0075472600
         0.0000000000     0.0000000000     0.0000000000      0.0049952000     0.0026586300    -0.0009793100
         0.0000000000     0.0000000000     0.0000000000      0.0040207500    -0.0026674500     0.0017720600
         0.0000000000     0.0000000000     0.0000000000     -0.0000335400     0.0008723500     0.0020817200
         0.0000000000     0.0000000000     0.0000000000     -0.0025383100    -0.0035823300    -0.0006087800
         0.0000000000     0.0000000000     0.0000000000     -0.0016513300     0.0001780100     0.0012798800
         0.0000000000     0.0000000000     0.0000000000      0.0016563500    -0.0026277100    -0.0009547900
         0.0000000000     0.0000000000     0.0000000000     -0.0010275600    -0.0014891700     0.0004294200
         0.0000000000     0.0000000000     0.0000000000      0.0018623700     0.0026670800     0.0040224100
         0.0000000000     0.0000000000     0.0000000000      0.0033426400    -0.0046723600    -0.0000480200
         0.0000000000     0.0000000000     0.0000000000     -0.0001109100     0.0013722400     0.0003811000
         0.0000000000     0.0000000000     0.0000000000     -0.0023480000     0.0051175700     0.0003418500
         0.0000000000     0.0000000000     0.0000000000     -0.0025075900    -0.0006024500    -0.0048089600
         0.0000000000     0.0000000000     0.0000000000     -0.0031950900     0.0072757300     0.0030083000
