CRYSTAL
PRIMVEC
     8.5428654021    0.0000000000    0.0000000000
     0.0000000000   29.9999975181    0.0000000000
     0.0000000000    0.0000000000   15.4999955853
PRIMCOORD
 48 1
         0.0000000000     0.0000000000     0.0000000000      0.0821907200     0.0113078400     0.0001110300
         0.0000000000     0.0000000000     0.0000000000     -0.0821771800     0.0119587100    -0.0000304900
         0.0000000000     0.0000000000     0.0000000000      0.0209343000    -0.0254042800    -0.0005597200
         0.0000000000     0.0000000000     0.0000000000     -0.0212373100    -0.0249625900     0.0002756200
         0.0000000000     0.0000000000     0.0000000000      0.0002012600    -0.0001548800     0.0000380300
         0.0000000000     0.0000000000     0.0000000000     -0.0001639600    -0.0001504900    -0.0000089900
         0.0000000000     0.0000000000     0.0000000000      0.0000628400     0.0001756900    -0.0000255600
         0.0000000000     0.0000000000     0.0000000000     -0.0000861400     0.0001023900     0.0000383200
         0.0000000000     0.0000000000     0.0000000000     -0.0000235500    -0.0002228200    -0.0000014500
         0.0000000000     0.0000000000     0.0000000000      0.0000781500    -0.0001619500    -0.0000052000
         0.0000000000     0.0000000000     0.0000000000     -0.0001676200     0.0000735400    -0.0000536000
         0.0000000000     0.0000000000     0.0000000000      0.0001444700    -0.0000724900     0.0001023300
         0.0000000000     0.0000000000     0.0000000000     -0.0001673400     0.0002656500     0.0002488900
         0.0000000000     0.0000000000     0.0000000000      0.0001683400     0.0004231700    -0.0000248000
         0.0000000000     0.0000000000     0.0000000000      0.0830849600     0.0112328000    -0.0001456900
         0.0000000000     0.0000000000     0.0000000000     -0.0824938200     0.0110010300     0.0001363400
         0.0000000000     0.0000000000     0.0000000000      0.0210413000    -0.0240188100     0.0001521600
         0.0000000000     0.0000000000     0.0000000000     -0.0213200400    -0.0263855000     0.0000243400
         0.0000000000     0.0000000000     0.0000000000      0.0001637000    -0.0001035200    -0.0000258100
         0.0000000000     0.0000000000     0.0000000000     -0.0001685200    -0.0001267800    -0.0000070100
         0.0000000000     0.0000000000     0.0000000000      0.0000251100     0.0001654400     0.0000558100
         0.0000000000     0.0000000000     0.0000000000     -0.0000324600     0.0001470100     0.0000079700
         0.0000000000     0.0000000000     0.0000000000     -0.0001745700    -0.0000522800    -0.0000179900
         0.0000000000     0.0000000000     0.0000000000      0.0001003000    -0.0000634400     0.0000688700
         0.0000000000     0.0000000000     0.0000000000     -0.0001612900    -0.0000616600     0.0000346100
         0.0000000000     0.0000000000     0.0000000000      0.0002654100    -0.0001000400     0.0001289700
         0.0000000000     0.0000000000     0.0000000000     -0.0002353800     0.0002316900    -0.0000651700
         0.0000000000     0.0000000000     0.0000000000      0.0003235600     0.0004620700     0.0004952300
         0.0000000000     0.0000000000     0.0000000000      0.0083992600     0.0111447300     0.0000550400
         0.0000000000     0.0000000000     0.0000000000     -0.0083963500     0.0112229100    -0.0000230100
         0.0000000000     0.0000000000     0.0000000000      0.0084331500     0.0111545400    -0.0000286400
         0.0000000000     0.0000000000     0.0000000000     -0.0084472100     0.0111444000     0.0000104400
         0.0000000000     0.0000000000     0.0000000000     -0.0024390800    -0.0051078000     0.0013547100
         0.0000000000     0.0000000000     0.0000000000     -0.0018424000     0.0062621100    -0.0082386000
         0.0000000000     0.0000000000     0.0000000000      0.0012738400     0.0013808400    -0.0008331100
         0.0000000000     0.0000000000     0.0000000000      0.0043151600    -0.0028030300     0.0019164100
         0.0000000000     0.0000000000     0.0000000000     -0.0000815000     0.0005014400     0.0029388600
         0.0000000000     0.0000000000     0.0000000000     -0.0024330200    -0.0039661500     0.0000826100
         0.0000000000     0.0000000000     0.0000000000     -0.0020494000     0.0001675700     0.0011840800
         0.0000000000     0.0000000000     0.0000000000      0.0022053800    -0.0038733100    -0.0011363300
         0.0000000000     0.0000000000     0.0000000000     -0.0004117600    -0.0001619200     0.0005840000
         0.0000000000     0.0000000000     0.0000000000      0.0018052000     0.0036033800     0.0037345000
         0.0000000000     0.0000000000     0.0000000000      0.0045842300    -0.0057389800     0.0009738800
         0.0000000000     0.0000000000     0.0000000000     -0.0002023600     0.0011908500     0.0008430900
         0.0000000000     0.0000000000     0.0000000000     -0.0017094400     0.0049590500     0.0003190800
         0.0000000000     0.0000000000     0.0000000000     -0.0028176100    -0.0009835700    -0.0047344300
         0.0000000000     0.0000000000     0.0000000000     -0.0032627800     0.0078866800     0.0028077700
         0.0000000000     0.0000000000     0.0000000000      0.0029014400     0.0065107700    -0.0027574100
