CRYSTAL
PRIMVEC
     8.5428654021    0.0000000000    0.0000000000
     0.0000000000   29.9999975181    0.0000000000
     0.0000000000    0.0000000000   15.4999955853
PRIMCOORD
 45 1
         0.0000000000     0.0000000000     0.0000000000      0.0874294900     0.0087282100    -0.0003587500
         0.0000000000     0.0000000000     0.0000000000     -0.0875838600     0.0078847500     0.0001940400
         0.0000000000     0.0000000000     0.0000000000      0.0131964000    -0.0240504900     0.0004886200
         0.0000000000     0.0000000000     0.0000000000     -0.0137566600    -0.0229445900    -0.0004383900
         0.0000000000     0.0000000000     0.0000000000      0.0001318400    -0.0000354200    -0.0000073100
         0.0000000000     0.0000000000     0.0000000000     -0.0001494800    -0.0000838700     0.0000010500
         0.0000000000     0.0000000000     0.0000000000     -0.0001974200    -0.0001054700     0.0000285000
         0.0000000000     0.0000000000     0.0000000000      0.0001611900    -0.0001184600    -0.0000284200
         0.0000000000     0.0000000000     0.0000000000      0.0002284400     0.0001128900    -0.0000864700
         0.0000000000     0.0000000000     0.0000000000     -0.0001483500     0.0000790400     0.0000196200
         0.0000000000     0.0000000000     0.0000000000     -0.0001607100     0.0000976000     0.0000132700
         0.0000000000     0.0000000000     0.0000000000     -0.0003153800     0.0000944900    -0.0001892000
         0.0000000000     0.0000000000     0.0000000000      0.0002689600    -0.0002902800    -0.0002909200
         0.0000000000     0.0000000000     0.0000000000      0.0007450400    -0.0009712100    -0.0003381700
         0.0000000000     0.0000000000     0.0000000000      0.0877363800     0.0089856000     0.0000621000
         0.0000000000     0.0000000000     0.0000000000     -0.0875576400     0.0082534800    -0.0002688200
         0.0000000000     0.0000000000     0.0000000000      0.0144965800    -0.0204422700    -0.0002119200
         0.0000000000     0.0000000000     0.0000000000     -0.0137915800    -0.0214037200     0.0006394300
         0.0000000000     0.0000000000     0.0000000000      0.0001315300    -0.0000776700    -0.0000551800
         0.0000000000     0.0000000000     0.0000000000     -0.0001578900    -0.0001266700    -0.0000090100
         0.0000000000     0.0000000000     0.0000000000     -0.0001473100    -0.0001066500    -0.0000261900
         0.0000000000     0.0000000000     0.0000000000      0.0001424000    -0.0000307200     0.0000397100
         0.0000000000     0.0000000000     0.0000000000      0.0002061000     0.0000992000     0.0000434900
         0.0000000000     0.0000000000     0.0000000000     -0.0002150200    -0.0000685300    -0.0000300200
         0.0000000000     0.0000000000     0.0000000000      0.0000397000     0.0000976500    -0.0001123900
         0.0000000000     0.0000000000     0.0000000000      0.0000949800     0.0002410000    -0.0000009100
         0.0000000000     0.0000000000     0.0000000000     -0.0002371200     0.0002221500     0.0005046000
         0.0000000000     0.0000000000     0.0000000000      0.0003815100    -0.0005073600    -0.0006448700
         0.0000000000     0.0000000000     0.0000000000      0.0083164300     0.0110933900    -0.0000746400
         0.0000000000     0.0000000000     0.0000000000     -0.0083523400     0.0111854900     0.0000732000
         0.0000000000     0.0000000000     0.0000000000      0.0082925900     0.0111736400     0.0000220700
         0.0000000000     0.0000000000     0.0000000000     -0.0083162900     0.0111908200    -0.0000683400
         0.0000000000     0.0000000000     0.0000000000     -0.0017915700     0.0005402700    -0.0057918100
         0.0000000000     0.0000000000     0.0000000000     -0.0037965500    -0.0038498400    -0.0016660300
         0.0000000000     0.0000000000     0.0000000000     -0.0000115300    -0.0017470700     0.0006927000
         0.0000000000     0.0000000000     0.0000000000     -0.0013293200     0.0062812400     0.0043160100
         0.0000000000     0.0000000000     0.0000000000      0.0009351800    -0.0001208400    -0.0015361500
         0.0000000000     0.0000000000     0.0000000000     -0.0011326000     0.0016067300     0.0008397400
         0.0000000000     0.0000000000     0.0000000000      0.0020889500     0.0008059500     0.0053563500
         0.0000000000     0.0000000000     0.0000000000     -0.0006592700     0.0080399700     0.0039733500
         0.0000000000     0.0000000000     0.0000000000     -0.0021323300    -0.0031339200     0.0008681200
         0.0000000000     0.0000000000     0.0000000000     -0.0003587500     0.0014132300    -0.0025192900
         0.0000000000     0.0000000000     0.0000000000      0.0016585300     0.0070632100    -0.0046164900
         0.0000000000     0.0000000000     0.0000000000      0.0037380800    -0.0038532300     0.0014970300
         0.0000000000     0.0000000000     0.0000000000      0.0018786700    -0.0012217100    -0.0003033000
