CRYSTAL
PRIMVEC
     8.5428654021    0.0000000000    0.0000000000
     0.0000000000   29.9999975181    0.0000000000
     0.0000000000    0.0000000000   15.4999955853
PRIMCOORD
 47 1
         0.0000000000     0.0000000000     0.0000000000      0.0873399300     0.0087448500    -0.0002161100
         0.0000000000     0.0000000000     0.0000000000     -0.0874213100     0.0079802900     0.0003216400
         0.0000000000     0.0000000000     0.0000000000      0.0129896400    -0.0236741200     0.0003526900
         0.0000000000     0.0000000000     0.0000000000     -0.0140557400    -0.0227649700    -0.0005605300
         0.0000000000     0.0000000000     0.0000000000      0.0001604200    -0.0000898900     0.0000216000
         0.0000000000     0.0000000000     0.0000000000     -0.0001401700    -0.0001082600    -0.0000128700
         0.0000000000     0.0000000000     0.0000000000     -0.0000889000    -0.0000471700    -0.0000035400
         0.0000000000     0.0000000000     0.0000000000      0.0000898100    -0.0000912700    -0.0000265100
         0.0000000000     0.0000000000     0.0000000000      0.0001060700     0.0000665100    -0.0001659000
         0.0000000000     0.0000000000     0.0000000000     -0.0000541300     0.0000305900    -0.0000040400
         0.0000000000     0.0000000000     0.0000000000     -0.0001337000     0.0000165000     0.0000365900
         0.0000000000     0.0000000000     0.0000000000     -0.0000204000     0.0000109800    -0.0000337400
         0.0000000000     0.0000000000     0.0000000000     -0.0001925000    -0.0000071800    -0.0005032000
         0.0000000000     0.0000000000     0.0000000000      0.0004742000    -0.0001022500    -0.0001898100
         0.0000000000     0.0000000000     0.0000000000      0.0877719100     0.0088430800     0.0002183900
         0.0000000000     0.0000000000     0.0000000000     -0.0875776200     0.0083352700    -0.0001508900
         0.0000000000     0.0000000000     0.0000000000      0.0144840100    -0.0206262500    -0.0004485000
         0.0000000000     0.0000000000     0.0000000000     -0.0138100100    -0.0215802300     0.0004524700
         0.0000000000     0.0000000000     0.0000000000      0.0001385000    -0.0000614600    -0.0000024700
         0.0000000000     0.0000000000     0.0000000000     -0.0001591000    -0.0000883100    -0.0000126400
         0.0000000000     0.0000000000     0.0000000000     -0.0000732000    -0.0000635500    -0.0000021700
         0.0000000000     0.0000000000     0.0000000000      0.0000585400     0.0000009900     0.0000661100
         0.0000000000     0.0000000000     0.0000000000      0.0001969000    -0.0000745600     0.0000052400
         0.0000000000     0.0000000000     0.0000000000     -0.0002166200    -0.0001303700     0.0000062900
         0.0000000000     0.0000000000     0.0000000000      0.0000127300     0.0002521700    -0.0000662300
         0.0000000000     0.0000000000     0.0000000000      0.0000743400     0.0002934400     0.0000814800
         0.0000000000     0.0000000000     0.0000000000     -0.0002272500    -0.0002811700     0.0004437900
         0.0000000000     0.0000000000     0.0000000000      0.0003863500    -0.0004861100    -0.0006256400
         0.0000000000     0.0000000000     0.0000000000      0.0083345700     0.0111068900    -0.0000518100
         0.0000000000     0.0000000000     0.0000000000     -0.0083773500     0.0111789700     0.0000848800
         0.0000000000     0.0000000000     0.0000000000      0.0083271200     0.0111781600     0.0000541000
         0.0000000000     0.0000000000     0.0000000000     -0.0083415200     0.0111967900    -0.0000466100
         0.0000000000     0.0000000000     0.0000000000     -0.0021642800     0.0003810300    -0.0060105800
         0.0000000000     0.0000000000     0.0000000000     -0.0046104300    -0.0049780900    -0.0019421700
         0.0000000000     0.0000000000     0.0000000000     -0.0008797400    -0.0007014400     0.0007284100
         0.0000000000     0.0000000000     0.0000000000     -0.0012826200     0.0065397400     0.0043985800
         0.0000000000     0.0000000000     0.0000000000      0.0010023000    -0.0004196000    -0.0019522000
         0.0000000000     0.0000000000     0.0000000000     -0.0012303900     0.0006238100     0.0003730600
         0.0000000000     0.0000000000     0.0000000000      0.0021727700     0.0009848600     0.0053280100
         0.0000000000     0.0000000000     0.0000000000      0.0005843300     0.0088019100     0.0049713100
         0.0000000000     0.0000000000     0.0000000000     -0.0024113500    -0.0039162900     0.0014975400
         0.0000000000     0.0000000000     0.0000000000     -0.0004031800     0.0007735200    -0.0038675400
         0.0000000000     0.0000000000     0.0000000000      0.0014224100     0.0069750900    -0.0053770900
         0.0000000000     0.0000000000     0.0000000000      0.0038965600    -0.0041129400     0.0015371600
         0.0000000000     0.0000000000     0.0000000000      0.0036626200    -0.0038739300    -0.0012126700
         0.0000000000     0.0000000000     0.0000000000      0.0024180000     0.0001269000     0.0003193500
         0.0000000000     0.0000000000     0.0000000000     -0.0022325500     0.0038370800     0.0021867700
