CRYSTAL
PRIMVEC
 8.54286592742127 0.00000000000000 0.00000000000000
 0.00000000000000 29.99999936305714 0.00000000000000
 0.00000000000000 0.00000000000000 15.49999653852868
PRIMCOORD
 40 1
  6     1.42374298100000     2.99499287600000     5.00000000000000     0.00000000000000     0.00000000000000     0.00000000000000
  6     2.84748596200000     2.99499287600000     5.00000000000000     0.00000000000000     0.00000000000000     0.00000000000000
  6     0.71187149100000     4.22799046600000     5.00000000000000     0.00000000000000     0.00000000000000     0.00000000000000
  6     3.55935745300000     4.22799046600000     5.00000000000000     0.00000000000000     0.00000000000000     0.00000000000000
  6     1.42382999600000     5.45251502200000     5.00000031400000     0.00004254718053    -0.00000017007534    -0.00000016062671
  6     2.84647085500000     5.45210963800000     5.00000054600000     0.00002637112610     0.00002807187949    -0.00000013228082
  6     0.70944964400000     6.69057317500000     4.99999902500000    -0.00000726599641    -0.00001911457833    -0.00000021731849
  6     3.56039418300000     6.68987016000000     5.00000009300000    -0.00000233381159    -0.00000561248617    -0.00000004724315
  6     1.41882196300000     7.91608647900000     5.00000095000000    -0.00000592429096    -0.00002571917064    -0.00000022676712
  6     2.84997100100000     7.91485812200000     5.00000072100000     0.00000958091074     0.00003144504037    -0.00000015117808
  6     0.69700479700000     9.14502271900000     5.00000736900000     0.00002079643445    -0.00002246884195    -0.00000001889726
  6     3.57094964800000     9.14305430100000     5.00001088500000     0.00001211314356    -0.00002095706116     0.00000010393493
  6     1.41463435500000    10.36253748800000     5.00001438700000     0.00004935964270    -0.00003335366361     0.00000016062671
  6     2.85052830200000    10.35907382800000     5.00001730600000     0.00003403396497    -0.00002882776988     0.00000036849657
  6     5.69497192400000     2.99499287600000     5.00000000000000     0.00000000000000     0.00000000000000     0.00000000000000
  6     7.11871490500000     2.99499287600000     5.00000000000000     0.00000000000000     0.00000000000000     0.00000000000000
  6     4.98310043400000     4.22799046600000     5.00000000000000     0.00000000000000     0.00000000000000     0.00000000000000
  6     7.83058639500000     4.22799046600000     5.00000000000000     0.00000000000000     0.00000000000000     0.00000000000000
  6     5.69521507100000     5.45676891400000     5.00000188600000     0.00004662898865    -0.00002838368428     0.00000008503767
  6     7.11821185100000     5.45709983500000     5.00000303900000     0.00001109269152    -0.00000172909928    -0.00000009448630
  6     4.98316957400000     6.69509200800000     5.00000241500000     0.00004596758456     0.00000085037669     0.00000000000000
  6     7.82961921000000     6.69610165900000     5.00000220900000     0.00004083697851     0.00002264836592    -0.00000003779452
  6     5.69649269900000     7.92715363400000     5.00000390900000    -0.00003206864995     0.00002251608510     0.00000015117808
  6     7.11662022400000     7.92886844000000     5.00000331400000     0.00001408790721    -0.00002721205417     0.00000010393493
  6     4.99181273400000     9.16654750500000     5.00001055500000     0.00002942303357    -0.00000693529436     0.00000017007534
  6     7.81972986100000     9.16933114200000     5.00000807900000     0.00003016947533    -0.00001079978400     0.00000008503767
  6     5.68889638300000    10.41633863700000     5.00001299300000     0.00004384164282     0.00002866714317     0.00000017007534
  6     7.12760873300000    10.42361485300000     5.00001053700000     0.00003753940667     0.00003136945133     0.00000017007534
  1     0.90511317300000     2.02921292800000     5.00000000000000     0.00000000000000     0.00000000000000     0.00000000000000
  1     3.36611577100000     2.02921292800000     5.00000000000000     0.00000000000000     0.00000000000000     0.00000000000000
  1     5.17634211700000     2.02921292800000     5.00000000000000     0.00000000000000     0.00000000000000     0.00000000000000
  1     7.63734470500000     2.02921292800000     5.00000000000000     0.00000000000000     0.00000000000000     0.00000000000000
  1     7.62136223000000    13.85274793700000     5.00003121300000    -0.00002058856459     0.00003396782456    -0.00000037794520
  6     7.10073165100000    12.88420211200000     5.00002250500000     0.00003457253687     0.00001375720516    -0.00000001889726
  6     3.50248206300000    11.59601908900000     5.00002612100000     0.00005605872131     0.00002596483502     0.00000045353424
  6     4.92462417500000    11.66502892300000     5.00002057400000     0.00002668293089    -0.00002008778721     0.00000023621575
  6     7.88185678400000    11.66735324100000     5.00001578300000     0.00002573806790     0.00002881832125     0.00000023621575
 78     2.14523331900000    13.03181452700000     5.00005089300000     0.00004139444768    -0.00002558688982     0.00000033070205
  6     0.76256019700000    11.60281292400000     5.00002105600000     0.00002927185549    -0.00004946357763     0.00000036849657
  6     5.74691973900000    12.81137629500000     5.00002559700000    -0.00000487549304    -0.00000679356491     0.00000004724315
