CRYSTAL
PRIMVEC
 8.54286592742127 0.00000000000000 0.00000000000000
 0.00000000000000 20.00000242299340 0.00000000000000
 0.00000000000000 0.00000000000000 15.49999653852868
PRIMCOORD
 40 1
  6     1.42374298100000     2.99499287600000     5.00000000000000     0.00000000000000     0.00000000000000     0.00000000000000
  6     2.84748596200000     2.99499287600000     5.00000000000000     0.00000000000000     0.00000000000000     0.00000000000000
  6     0.71187149100000     4.22799046600000     5.00000000000000     0.00000000000000     0.00000000000000     0.00000000000000
  6     3.55935745300000     4.22799046600000     5.00000000000000     0.00000000000000     0.00000000000000     0.00000000000000
  6     1.42384507100000     5.45250847000000     5.00000596000000     0.00003809687583     0.00000310859924     0.00000002834589
  6     2.84646180700000     5.45208871700000     5.00000746700000     0.00002718370828     0.00002721205417     0.00000011338356
  6     0.70946135500000     6.69054519100000     5.00001139800000    -0.00001319028737    -0.00001159346891     0.00000020786986
  6     3.56040026400000     6.68980443500000     5.00001147500000    -0.00000847542104    -0.00000350544170     0.00000016062671
  6     1.41881879200000     7.91610066600000     5.00000677800000     0.00000233381159    -0.00001881222217     0.00000004724315
  6     2.84997462100000     7.91480093100000     5.00000617900000     0.00001068640044     0.00003001829725     0.00000001889726
  6     0.69699677900000     9.14507337800000     5.00000680300000     0.00001744217083    -0.00002252553373    -0.00000006614041
  6     3.57097471500000     9.14297080400000     5.00000515100000     0.00001061081140    -0.00001610046538    -0.00000028345890
  6     1.41454250100000    10.36266902900000     4.99999514000000     0.00006019722121    -0.00002868604043    -0.00000038739383
  6     2.85053121500000    10.35895904500000     4.99999375400000     0.00001989881461    -0.00004022281757    -0.00000058581505
  6     5.69497192400000     2.99499287600000     5.00000000000000     0.00000000000000     0.00000000000000     0.00000000000000
  6     7.11871490500000     2.99499287600000     5.00000000000000     0.00000000000000     0.00000000000000     0.00000000000000
  6     4.98310043400000     4.22799046600000     5.00000000000000     0.00000000000000     0.00000000000000     0.00000000000000
  6     7.83058639500000     4.22799046600000     5.00000000000000     0.00000000000000     0.00000000000000     0.00000000000000
  6     5.69523817400000     5.45675582100000     5.00001407900000     0.00004189522506    -0.00002847817058     0.00000028345890
  6     7.11821481400000     5.45709464600000     5.00001445000000     0.00000235270885    -0.00000476210948     0.00000036849657
  6     4.98318329600000     6.69506453700000     5.00001658500000     0.00004591089278     0.00000156847257     0.00000059526368
  6     7.82962591100000     6.69608768700000     5.00001809500000     0.00004504161882     0.00001713981467     0.00000046298287
  6     5.69648215000000     7.92715056100000     5.00002039400000    -0.00003552684850     0.00002582310557     0.00000044408561
  6     7.11664057700000     7.92886580200000     5.00002127000000     0.00001491938664    -0.00002874273221     0.00000057636643
  6     4.99183177500000     9.16654724800000     5.00001639000000     0.00003210644446    -0.00001440916063     0.00000014172945
  6     7.81974445600000     9.16932339800000     5.00001834100000     0.00003807797857    -0.00000720930463     0.00000028345890
  6     5.68892209300000    10.41635362600000     5.00001807800000     0.00003375995470     0.00002771283155     0.00000016062671
  6     7.12759055700000    10.42355366000000     5.00001878200000     0.00003897559842     0.00002260112277     0.00000031180479
  1     0.90511317300000     2.02921292800000     5.00000000000000     0.00000000000000     0.00000000000000     0.00000000000000
  1     3.36611577100000     2.02921292800000     5.00000000000000     0.00000000000000     0.00000000000000     0.00000000000000
  1     5.17634211700000     2.02921292800000     5.00000000000000     0.00000000000000     0.00000000000000     0.00000000000000
  1     7.63734470500000     2.02921292800000     5.00000000000000     0.00000000000000     0.00000000000000     0.00000000000000
  1     7.62164525400000    13.85214972800000     5.00003478200000    -0.00001572252019     0.00004989821460    -0.00000026456164
  6     7.09986694700000    12.88410758300000     5.00002612800000     0.00004846202285    -0.00000465817455     0.00000006614041
  6     3.50291827400000    11.59566343100000     5.00000206100000     0.00004595813593     0.00003421348894    -0.00000053857191
  6     4.92509022800000    11.66509047400000     5.00001092000000     0.00004404951268    -0.00003197416365     0.00000001889726
  6     7.88155054400000    11.66738114000000     5.00001625500000     0.00002305465700     0.00002867659180     0.00000007558904
 78     2.14626543600000    13.03160265300000     5.00001421800000     0.00003617880396    -0.00002219483168    -0.00000091651710
  6     0.76235375500000    11.60302561600000     5.00000436300000     0.00003326862594    -0.00005110763923    -0.00000018897260
  6     5.74565095200000    12.81313962900000     5.00001965400000    -0.00001707367426     0.00000217318488     0.00000011338356
