CRYSTAL
PRIMVEC
 8.54286592742127 0.00000000000000 0.00000000000000
 0.00000000000000 29.99999936305714 0.00000000000000
 0.00000000000000 0.00000000000000 15.49999653852868
PRIMCOORD
 42 1
  6     1.42374298100000     2.99499287600000     5.00000000000000     0.00000000000000     0.00000000000000     0.00000000000000
  6     2.84748596200000     2.99499287600000     5.00000000000000     0.00000000000000     0.00000000000000     0.00000000000000
  6     0.71187149100000     4.22799046600000     5.00000000000000     0.00000000000000     0.00000000000000     0.00000000000000
  6     3.55935745300000     4.22799046600000     5.00000000000000     0.00000000000000     0.00000000000000     0.00000000000000
  6     1.42337686800000     5.45448829900000     5.00001451000000    -0.00001501387294     0.00000821085940     0.00000006614041
  6     2.84599123500000     5.45136063500000     5.00001086700000     0.00000396842457    -0.00000605657178     0.00000005669178
  6     0.70991157700000     6.69471881500000     5.00002527900000     0.00001353988667     0.00000981712649    -0.00000004724315
  6     3.56069941500000     6.68662201000000     5.00001759600000     0.00000374165745     0.00000127556504    -0.00000018897260
  6     1.41982177700000     7.92573871700000     5.00001995600000     0.00000609436630     0.00000064250683    -0.00000037794520
  6     2.84984128200000     7.91434787900000     5.00001256700000    -0.00000977933197    -0.00002351763987    -0.00000018897260
  6     0.69986140600000     9.16017025500000     5.00001845500000    -0.00002948917398     0.00000659514368    -0.00000017007534
  6     3.56748960100000     9.13972372500000     5.00000417700000     0.00001057301688    -0.00001215093808     0.00000003779452
  6     1.41359708900000    10.38918769400000     4.99999591800000    -0.00000800298954    -0.00000525343823    -0.00000025511301
  6     2.85221172100000    10.35999238600000     4.99998791500000    -0.00001030845524     0.00002936634179    -0.00000037794520
  6     5.69497192400000     2.99499287600000     5.00000000000000     0.00000000000000     0.00000000000000     0.00000000000000
  6     7.11871490500000     2.99499287600000     5.00000000000000     0.00000000000000     0.00000000000000     0.00000000000000
  6     4.98310043400000     4.22799046600000     5.00000000000000     0.00000000000000     0.00000000000000     0.00000000000000
  6     7.83058639500000     4.22799046600000     5.00000000000000     0.00000000000000     0.00000000000000     0.00000000000000
  6     5.69620499800000     5.45500090200000     5.00001682800000     0.00001610991401    -0.00000388338690    -0.00000006614041
  6     7.11934936900000     5.45707870500000     5.00001864600000     0.00002620105077     0.00003061356094     0.00000007558904
  6     4.98250359000000     6.69106555800000     5.00002184200000     0.00001354933530     0.00002654120144    -0.00000024566438
  6     7.83174052300000     6.69740537700000     5.00003066700000     0.00000404401361    -0.00000069919861     0.00000008503767
  6     5.69708826400000     7.92374889700000     5.00002837600000     0.00003373160881     0.00000833369159    -0.00000032125342
  6     7.11882084100000     7.93142450200000     5.00003380500000    -0.00001613825990    -0.00000728489367    -0.00000017952397
  6     4.99170521700000     9.15761316900000     5.00001587400000     0.00000427078072    -0.00001091316756    -0.00000026456164
  6     7.82397413100000     9.17336255300000     5.00002746500000    -0.00002016337625     0.00001549575307    -0.00000006614041
  6     5.69657150000000    10.40088901900000     5.00000142700000     0.00000228656844     0.00000215428762     0.00000008503767
  6     7.12851977900000    10.42156853600000     5.00000711600000    -0.00001211314356    -0.00003818191350    -0.00000011338356
  1     0.90511317300000     2.02921292800000     5.00000000000000     0.00000000000000     0.00000000000000     0.00000000000000
  1     3.36611577100000     2.02921292800000     5.00000000000000     0.00000000000000     0.00000000000000     0.00000000000000
  1     5.17634211700000     2.02921292800000     5.00000000000000     0.00000000000000     0.00000000000000     0.00000000000000
  1     7.63734470500000     2.02921292800000     5.00000000000000     0.00000000000000     0.00000000000000     0.00000000000000
  1     7.54248538800000    13.85364832400000     4.99995463700000    -0.00001208479767     0.00000869273953    -0.00000051022602
  6     7.03434750600000    12.88544590100000     4.99995723700000     0.00003288123212    -0.00000892895527    -0.00000000944863
  6     3.51049609900000    11.59560364100000     4.99996786000000     0.00001304855792     0.00000416684579    -0.00000038739383
  6     4.92736699400000    11.62686115400000     4.99997030000000     0.00002396172547     0.00001087537304     0.00000001889726
  6     7.86278368200000    11.68492165800000     4.99997992800000    -0.00002830809524    -0.00002553019804     0.00000008503767
 78     2.18316918300000    13.13096681300000     4.99995648600000    -0.00002230821524     0.00000314639376     0.00000010393493
  6     0.74569732500000    11.64076421700000     4.99997940700000    -0.00001844372560    -0.00000359047937    -0.00000002834589
  6     5.67321770600000    12.82984257200000     4.99994973000000     0.00003766223886     0.00000216373625     0.00000018897260
  6     1.10744836100000    14.70603661100000     4.99997356500000    -0.00001148953398     0.00006130271091     0.00000007558904
  8     0.64691168200000    15.76715444700000     5.00000684900000     0.00000703922929    -0.00005270445769    -0.00000012283219
