CRYSTAL
PRIMVEC
 8.54286592742127 0.00000000000000 0.00000000000000
 0.00000000000000 29.99999936305714 0.00000000000000
 0.00000000000000 0.00000000000000 15.49999653852868
PRIMCOORD
 42 1
  6     1.42374298100000     2.99499287600000     5.00000000000000     0.00000000000000     0.00000000000000     0.00000000000000
  6     2.84748596200000     2.99499287600000     5.00000000000000     0.00000000000000     0.00000000000000     0.00000000000000
  6     0.71187149100000     4.22799046600000     5.00000000000000     0.00000000000000     0.00000000000000     0.00000000000000
  6     3.55935745300000     4.22799046600000     5.00000000000000     0.00000000000000     0.00000000000000     0.00000000000000
  6     1.42466940400000     5.45245159300000     5.00518818400000     0.00014096410976    -0.00012039444243    -0.00011064345635
  6     2.84777297400000     5.45209434100000     5.00406192900000     0.00019709842011    -0.00002565303023    -0.00003837088610
  6     0.71068622600000     6.68974515000000     5.00475524900000    -0.00019254418049    -0.00026517579868    -0.00045731368808
  6     3.56409201300000     6.68862162100000     5.00102667600000     0.00005055017007     0.00014630258567     0.00010248928873
  6     1.42375240400000     7.92023101300000     4.99487616800000    -0.00018699783473    -0.00047314959183    -0.00082307960088
  6     2.85362181000000     7.91958198000000     4.99150112900000    -0.00019271425583    -0.00024091171705    -0.00011550005213
  6     0.70445247200000     9.14738095900000     4.96115122000000    -0.00007361427570    -0.00012835018882    -0.00050007818710
  6     3.57344804300000     9.14835785000000     4.95517880100000    -0.00025606731944    -0.00009109424105     0.00011941178492
  6     1.43110703400000    10.35928166200000     4.91692398200000    -0.00037263506675     0.00016760924613    -0.00034077428666
  6     2.85572650700000    10.36213408900000     4.91199594300000    -0.00018736633129    -0.00010332076816    -0.00003309855061
  6     5.69497192400000     2.99499287600000     5.00000000000000     0.00000000000000     0.00000000000000     0.00000000000000
  6     7.11871490500000     2.99499287600000     5.00000000000000     0.00000000000000     0.00000000000000     0.00000000000000
  6     4.98310043400000     4.22799046600000     5.00000000000000     0.00000000000000     0.00000000000000     0.00000000000000
  6     7.83058639500000     4.22799046600000     5.00000000000000     0.00000000000000     0.00000000000000     0.00000000000000
  6     5.69641955500000     5.45586019900000     5.00190411800000    -0.00006205860131     0.00014899544519    -0.00017968459517
  6     7.12033012300000     5.45642571500000     5.00161851300000    -0.00037270120716    -0.00005105094745     0.00031009458531
  6     4.98308265600000     6.69466750200000     4.99798123100000     0.00030143964031     0.00044094866106    -0.00006150113214
  6     7.83470762000000     6.69667184100000     5.00006357700000    -0.00016576676330    -0.00018629863611     0.00004507941334
  6     5.69810061500000     7.93252346800000     4.97790888800000     0.00013134540450     0.00023653700139    -0.00056175884321
  6     7.12209439200000     7.93398675100000     4.98003264000000     0.00012695179159    -0.00010959465843    -0.00055476685707
  6     4.99770708000000     9.16590171100000     4.94110697700000    -0.00012724469912     0.00007900944338    -0.00049451294407
  6     7.82464207100000     9.16985884500000     4.94528775300000     0.00019950782074    -0.00005248713920    -0.00011075683991
  6     5.69244835700000    10.41966318200000     4.87464945600000    -0.00000000944863    -0.00031323153045    -0.00025784366186
  6     7.13336874400000    10.42487948200000     4.87471357200000    -0.00011141824401    -0.00010876317900     0.00061479400294
  1     0.90511317300000     2.02921292800000     5.00000000000000     0.00000000000000     0.00000000000000     0.00000000000000
  1     3.36611577100000     2.02921292800000     5.00000000000000     0.00000000000000     0.00000000000000     0.00000000000000
  1     5.17634211700000     2.02921292800000     5.00000000000000     0.00000000000000     0.00000000000000     0.00000000000000
  1     7.63734470500000     2.02921292800000     5.00000000000000     0.00000000000000     0.00000000000000     0.00000000000000
  1     7.64419312300000    13.82997385600000     4.63514232200000     0.00021143199170     0.00016481245168     0.00000386448964
  6     7.11019397900000    12.87158768900000     4.71809906000000    -0.00007204580313     0.00027231896290     0.00026525138772
  6     3.46397751200000    11.65076419500000     4.82923816100000    -0.00005481150216    -0.00015220797937     0.00015986136960
  6     4.91689866700000    11.65679702300000     4.81001784200000     0.00007519219690    -0.00024333056631    -0.00041607041849
  6     7.89405583700000    11.66590786200000     4.80850724200000    -0.00031611336257     0.00000134170545     0.00091069674612
 78     2.09226180500000    13.10563775700000     4.93697131500000    -0.00013519099688    -0.00015413549987     0.00073109718862
  6     0.79638280800000    11.62660747200000     4.85067171000000    -0.00048358087926     0.00005277059810     0.00028192821952
  6     5.75049250300000    12.78931057700000     4.73662479500000    -0.00005125881731    -0.00029464607540    -0.00037241774826
  8     1.09984723400000    14.78319124600000     5.25583892500000     0.00051804948120     0.00006900334430    -0.00166790049920
  1     0.62959849400000    14.82441732100000     6.11874411000000    -0.00027523858954     0.00015121587322     0.00168405765636
