CRYSTAL
PRIMVEC
 8.54286592742127 0.00000000000000 0.00000000000000
 0.00000000000000 20.00000242299340 0.00000000000000
 0.00000000000000 0.00000000000000 15.49999653852868
PRIMCOORD
 42 1
  6     1.42374298100000     2.99499287600000     5.00000000000000     0.00000000000000     0.00000000000000     0.00000000000000
  6     2.84748596200000     2.99499287600000     5.00000000000000     0.00000000000000     0.00000000000000     0.00000000000000
  6     0.71187149100000     4.22799046600000     5.00000000000000     0.00000000000000     0.00000000000000     0.00000000000000
  6     3.55935745300000     4.22799046600000     5.00000000000000     0.00000000000000     0.00000000000000     0.00000000000000
  6     1.42431365500000     5.45219031100000     4.99085637700000    -0.00000589594507     0.00000243774652    -0.00000344874992
  6     2.84731463900000     5.45188829000000     4.99055484500000    -0.00000450699647    -0.00000231491433     0.00001519339691
  6     0.70905802800000     6.68857779100000     4.97451122300000     0.00000134170545     0.00001306745518     0.00001443750652
  6     3.56283550500000     6.68835242900000     4.97348457900000    -0.00000119997600    -0.00000292907527     0.00003128441366
  6     1.42128068500000     7.91883287600000     4.95480999400000     0.00001022341757     0.00001427687981     0.00001680911263
  6     2.85126803300000     7.91834037600000     4.95360138900000     0.00002213813990     0.00000462982866     0.00002881832125
  6     0.70160105200000     9.14635216700000     4.92768616100000    -0.00001186747918     0.00000008503767     0.00000886281486
  6     3.57053785000000     9.14745520600000     4.92192578100000     0.00000773842790     0.00001085647578     0.00003151118078
  6     1.42742724600000    10.35904025500000     4.90182801600000    -0.00001226432163     0.00000295742116    -0.00000000944863
  6     2.85231061400000    10.36150587700000     4.89501130500000    -0.00000785181146    -0.00000320308554     0.00001360602708
  6     5.69497192400000     2.99499287600000     5.00000000000000     0.00000000000000     0.00000000000000     0.00000000000000
  6     7.11871490500000     2.99499287600000     5.00000000000000     0.00000000000000     0.00000000000000     0.00000000000000
  6     4.98310043400000     4.22799046600000     5.00000000000000     0.00000000000000     0.00000000000000     0.00000000000000
  6     7.83058639500000     4.22799046600000     5.00000000000000     0.00000000000000     0.00000000000000     0.00000000000000
  6     5.69561080900000     5.45608627800000     4.98971085700000    -0.00000270230816    -0.00000650065738    -0.00000879667445
  6     7.11912823300000     5.45607442500000     4.98978567000000     0.00000724709915    -0.00000194641776    -0.00002474596176
  6     4.98210076700000     6.69479599100000     4.97149431400000    -0.00000980767786    -0.00000311804787     0.00002367826658
  6     7.83289125700000     6.69598678500000     4.97263997800000     0.00000704867792    -0.00000000000000     0.00002230821524
  6     5.69625366500000     7.93238441900000     4.94359071100000    -0.00001170685247    -0.00000410070538     0.00000589594507
  6     7.12025134100000     7.93327972900000     4.94576131900000    -0.00001164071206    -0.00001175409562     0.00001003444497
  6     4.99466240700000     9.16554358200000     4.91041390900000     0.00000552744850     0.00001032735250     0.00000613216082
  6     7.82221553100000     9.16949288500000     4.91720668700000    -0.00000925020869    -0.00001458868460    -0.00000218263351
  6     5.68905513000000    10.41996712400000     4.86454561500000     0.00000178579105     0.00000252278419     0.00001113993467
  6     7.13028735900000    10.42548512700000     4.86975634000000     0.00000265506501    -0.00000547075672     0.00003286233486
  1     0.90511317300000     2.02921292800000     5.00000000000000     0.00000000000000     0.00000000000000     0.00000000000000
  1     3.36611577100000     2.02921292800000     5.00000000000000     0.00000000000000     0.00000000000000     0.00000000000000
  1     5.17634211700000     2.02921292800000     5.00000000000000     0.00000000000000     0.00000000000000     0.00000000000000
  1     7.63734470500000     2.02921292800000     5.00000000000000     0.00000000000000     0.00000000000000     0.00000000000000
  1     7.64281648700000    13.83614696200000     4.72587458800000     0.00000792740050     0.00000428022935     0.00002327197549
  6     7.10671032400000    12.87627021200000     4.77641986700000     0.00001098875660     0.00000102045203     0.00003554574576
  6     3.45991610100000    11.65114933100000     4.84359879600000     0.00000104879792    -0.00000687860258     0.00002126886595
  6     4.91304284500000    11.65809657700000     4.82460248300000    -0.00000531957864    -0.00000450699647     0.00002090036938
  6     7.89036316100000    11.66797240200000     4.83555284800000    -0.00000314639376    -0.00000545185946     0.00006298456704
 78     2.08907787200000    13.10565749200000     4.99229032500000     0.00000769118475    -0.00002383889329     0.00003175684516
  6     0.79314708100000    11.62771771100000     4.87191307900000     0.00000013228082     0.00000154012668     0.00001536347225
  6     5.74695316700000    12.79260752400000     4.78298190800000     0.00001031790387    -0.00000189917461     0.00002717425965
  8     1.10484700400000    14.78804506300000     5.34457724400000     0.00002040904063     0.00001215093808    -0.00001963425297
  1     0.68106170800000    14.81610827200000     6.23275301700000    -0.00002446250286     0.00000766283886     0.00009344694990
