CRYSTAL
PRIMVEC
 8.54286539824406 0.00000000000000 0.00000000000000
 0.00000000000000 29.99999750474448 0.00000000000000
 0.00000000000000 0.00000000000000 15.49999557840067
PRIMCOORD
 44 1
  6     1.42374284154634     2.99499277706454     4.99999986888626     0.07879413745311     0.00894984619425    -0.00000061416094
  6     2.84748568309268     2.99499277706454     4.99999986888626    -0.07956003394572     0.00986995377577    -0.00000063305820
  6     0.71187184791644     4.22799051999888     4.99999986888626     0.01911745070973    -0.02680119939209     0.00000111493833
  6     3.55935753100911     4.22799051999888     4.99999986888626    -0.01972282442864    -0.01945813051009     0.00000171020202
  6     1.42570342915523     5.45038058696823     5.00001268318436     0.00014411050353    -0.00019903538924     0.00000025511301
  6     2.84862273847718     5.45700728765764     5.00001353747090    -0.00010677896672    -0.00000560303754    -0.00000028345890
  6     0.70860163904199     6.68240871467987     5.00002122604976     0.00019605907082     0.00041888611020    -0.00000029290753
  6     3.56041513774542     6.70112527848088     5.00001866319014     0.00000923131143     0.00001500442431     0.00000035904794
  6     1.42212738569953     7.91187996277782     5.00001182889782    -0.00010234755928    -0.00027636297650    -0.00000001889726
  6     2.85012371992765     7.93692593555239     5.00000926603820     0.00028089831886     0.00017299496519    -0.00000006614041
  6     0.70743468362859     9.13377796070023     4.99999645174010    -0.00005705082745     0.00004507941334     0.00000017952397
  6     3.56172219615135     9.18176067278254     4.99999730602664    -0.00014274045219    -0.00058275369889     0.00000065195546
  6     1.43199183237488    10.35041184496423     4.99997167743045    -0.00032795249586     0.00014954346573    -0.00000029290753
  6     2.86505066863801    10.43278727885334     4.99997851172276     0.00087443290449     0.00127976967939     0.00000052912328
  6     5.69497136618535     2.99499277706454     4.99999986888626     0.08081056956413     0.00951738759897    -0.00000059526368
  6     7.11871506201823     2.99499277706454     4.99999986888626    -0.07946500907462     0.00816049820218    -0.00000052912328
  6     4.98310037255545     4.22799051999888     4.99999986888626     0.01931325466754    -0.01732343934700     0.00000257947597
  6     7.83058605564813     4.22799051999888     4.99999986888626    -0.01926784455215    -0.02505092573725     0.00000248498967
  6     5.69230855504072     5.45659039582621     5.00001780890360     0.00017205955083     0.00012897379839    -0.00000094486299
  6     7.11588822785795     5.45179784833779     5.00001780890360    -0.00017613191032    -0.00008546285762    -0.00000103934929
  6     4.97985408370412     6.70141659019096     5.00002378890937    -0.00004934074544    -0.00008802343633    -0.00000017952397
  6     7.83159667662474     6.68411899633260     5.00002464319591    -0.00014382704463     0.00024419984026    -0.00000020786986
  6     5.68828742829777     7.93602551753942     5.00001780890360     0.00025487679207    -0.00010853641188     0.00000022676712
  6     7.11573018484808     7.91727819942297     5.00002037176322    -0.00040537456942    -0.00058213953794    -0.00000013228082
  6     4.97872044546577     9.18025627418591     5.00000328603242    -0.00013761929477     0.00027408585669     0.00000003779452
  6     7.81946837061885     9.13655097480850     5.00000328603242     0.00030538916761     0.00056303440825    -0.00000044408561
  6     5.66814249740217    10.42966229869067     4.99998620030162     0.00016184558188     0.00005082418033     0.00000057636643
  6     7.09425512980998    10.37080281038330     4.99998449172854    -0.00022498132700    -0.00028300536334     0.00000017952397
  1     0.90511317179780     2.02921244664111     4.99999986888626     0.00808641149499     0.01039989908204     0.00000001889726
  1     3.36611535284121     2.02921244664111     4.99999986888626    -0.00798653002811     0.01066930786692    -0.00000007558904
  1     5.17634169643681     2.02921244664111     4.99999986888626     0.00797363264827     0.01062111040570    -0.00000016062671
  1     7.63734473176677     2.02921244664111     4.99999986888626    -0.00810776539861     0.01047679203232    -0.00000011338356
  1     7.96515241711473    14.91393365491763     5.00002635176899     0.00111337930651    -0.00336352327858    -0.00000058581505
  6     0.71617574350407    11.55705741100461     4.99995202884003    -0.00227779066321    -0.00396683719617    -0.00000021731849
  6     7.84354814531688    11.55151736279385     4.99996142599197     0.00015291662661     0.00070627563782    -0.00000002834589
  6     8.29782782716661    13.85646531303447     4.99997936600930    -0.00525132174189     0.00530087035718     0.00000056691780
  6     5.80193231240407    12.90686175252915     4.99998022029584    -0.00275594802890     0.00385975587330    -0.00000002834589
  1     5.28043651131442    13.87610706915811     4.99999388888048     0.00365055375826    -0.00482372399490    -0.00000061416094
 78     1.66906916147425    13.20128050275461     4.99996142599197    -0.00158136994640     0.00045307125325    -0.00000256057871
  6     4.96052926788675    11.72018257149755     4.99997851172276     0.00039983767228     0.00222213823299     0.00000051022602
  6     3.48278953701773    11.74713360325593     4.99997680314968     0.00198793504319    -0.00421567631372    -0.00000057636643
  6     7.23445892815288    12.84475170393776     4.99996826028429    -0.00001022341757     0.00317297275901     0.00000021731849
  8     2.78996486179322    14.88195770973200     4.99999132602086    -0.00021160206704     0.01576389573571    -0.00000055746917
  1     2.23792148261253    15.69677279427036     5.00004087464017     0.00427340744253    -0.00627180211904    -0.00000044408561
