CRYSTAL
PRIMVEC
 8.54286539824406 0.00000000000000 0.00000000000000
 0.00000000000000 29.99999750474448 0.00000000000000
 0.00000000000000 0.00000000000000 15.49999557840067
PRIMCOORD
 45 1
  6     1.42374284154634     2.99499277706454     4.99999986888626     0.07872958441350     0.00933580382918    -0.00017183278371
  6     2.84748568309268     2.99499277706454     4.99999986888626    -0.07953547695656     0.01035225908999    -0.00018791435183
  6     0.71187184791644     4.22799051999888     4.99999986888626     0.01958755784272    -0.02669223779186     0.00023974008694
  6     3.55935753100911     4.22799051999888     4.99999986888626    -0.01941257866525    -0.01937392432025     0.00032371950966
  6     1.42575297777454     5.45046686990875     5.00379290112308     0.00010060901138    -0.00030244119508    -0.00000367551704
  6     2.84873379572736     5.45751985958154     5.00403551850039    -0.00011214578851    -0.00012531717862    -0.00003846537240
  6     0.70900998800803     6.68302978099432     5.01006080146577     0.00006658449504     0.00028479115439    -0.00004120547508
  6     3.56043307776275     6.70204876223043     5.01089202226902     0.00006152947803     0.00000634947931    -0.00004046848194
  6     1.42160883376986     7.91116492494399     5.01886166139904    -0.00016229911612    -0.00012560063751    -0.00002270505770
  6     2.85086694921730     7.93827656257185     5.01981760803711     0.00044988706497     0.00027705272649    -0.00001975708516
  6     0.70590807358192     9.13179259878167     5.02858002507609    -0.00001769728384    -0.00017986411914     0.00000075589039
  6     3.56262346845086     9.18279265092265     5.03096775595489    -0.00023110403919    -0.00076451699264    -0.00003658509505
  6     1.43016195060658    10.34893820068304     5.04075019112242     0.00009816181623    -0.00010136490177    -0.00000025511301
  6     2.86603138958572    10.43571577311186     5.04314475629355     0.00045917506818     0.00075518174628     0.00000089761984
  6     5.69497136618535     2.99499277706454     4.99999986888626     0.07959215928744     0.01061244601207    -0.00018426718068
  6     7.11871506201823     2.99499277706454     4.99999986888626    -0.07831117073480     0.00915301063477    -0.00016984857142
  6     4.98310037255545     4.22799051999888     4.99999986888626     0.01912224116510    -0.01883850825726     0.00025597283314
  6     7.83058605564813     4.22799051999888     4.99999986888626    -0.02000503610706    -0.02608312241550     0.00020958950886
  6     5.69228378073106     5.45706794200197     5.00372370391335     0.00015421108891    -0.00007318908735     0.00001127221549
  6     7.11567209336338     5.45174402828579     5.00357676662850    -0.00016033380110    -0.00018869858811    -0.00000107714381
  6     4.97993694949848     6.70120558141563     5.01060071055894    -0.00008634158020    -0.00000845652378     0.00000814471899
  6     7.83074751580416     6.68411216204028     5.00989592416358     0.00004982262556     0.00019492523523    -0.00003079308491
  6     5.68907849763364     7.93532414829022     5.01942719908841    -0.00001953031804    -0.00001413515036     0.00000876832856
  6     7.11454699799043     7.91491182570766     5.01863356689291    -0.00006002714588    -0.00025119182640    -0.00003286233486
  6     4.97970714641927     9.18107553497760     5.03079433578731    -0.00006751046077     0.00013110918876     0.00000893840390
  6     7.81939063054373     9.13592051134211     5.02862188511654     0.00016735413313     0.00020910762874    -0.00000913682513
  6     5.66959991023911    10.42976395878890     5.04311400197812     0.00016238415379     0.00009650830599     0.00001403121543
  6     7.09555108249089    10.36873372838385     5.04123798873666    -0.00032142349259    -0.00005815631715     0.00001865159546
  1     0.90511317179780     2.02921244664111     4.99999986888626     0.00800743039750     0.01039600624651    -0.00003172849927
  1     3.36611535284121     2.02921244664111     4.99999986888626    -0.00789899792054     0.01067289834629    -0.00003907008472
  1     5.17634169643681     2.02921244664111     4.99999986888626     0.00787966602373     0.01062213085773    -0.00003386388963
  1     7.63734473176677     2.02921244664111     4.99999986888626    -0.00801852308902     0.01046053094023    -0.00002935689316
  1     7.97956081389541    14.91284956529859     5.10117131522458     0.00084091861417    -0.00382748880213    -0.00007612761126
  6     0.71541286562401    11.54728266441594     5.05381394088942    -0.00205306444922    -0.00332276188911    -0.00006375935469
  6     7.84837657283997    11.55019663580329     5.05428892420556    -0.00022869463856     0.00071671637388    -0.00000658569505
  6     8.28916279879317    13.85147627964189     5.08561219447476    -0.00523528741692     0.00528201089187     0.00005140999539
  6     5.80210060685241    12.90170015325553     5.07286794787366    -0.00260977772405     0.00406460216995     0.00005114543375
  1     5.28995582622768    13.87468126492314     5.08557289729393     0.00358011422222    -0.00485996893927    -0.00006845532376
 78     1.68250281731299    13.19115891583077     5.07681475168765    -0.00162408720227    -0.00149368666075    -0.00004804628314
  6     4.96112043417231    11.72334514026798     5.05838010244478     0.00050341355346     0.00197382823872    -0.00000167240750
  6     3.47902469623673    11.74510808987000     5.05852020543731     0.00207922770547    -0.00360457672508    -0.00000258892460
  6     7.23831090616095    12.84539498170224     5.07152330085998    -0.00018680886213     0.00272189516667     0.00003855041007
  8     2.81877823820842    14.85680922257265     5.10310798281037     0.00307820300092     0.00863782408843     0.00011688900073
  8     2.06669768572206    16.09933909471836     5.12595758489105     0.00676759062815     0.00786241282550     0.00008051177554
  1     2.81184570293774    16.75126138470262     5.13595273740699    -0.00517990899696    -0.00453018340921    -0.00004689355029
