CRYSTAL
PRIMVEC
 8.54286592742127 0.00000000000000 0.00000000000000
 0.00000000000000 29.99999936305714 0.00000000000000
 0.00000000000000 0.00000000000000 15.49999653852868
PRIMCOORD
 48 1
  6     1.42374298100000     2.99499287600000     5.00000000000000     0.00000000000000     0.00000000000000     0.00000000000000
  6     2.84748596200000     2.99499287600000     5.00000000000000     0.00000000000000     0.00000000000000     0.00000000000000
  6     0.71187149100000     4.22799046600000     5.00000000000000     0.00000000000000     0.00000000000000     0.00000000000000
  6     3.55935745300000     4.22799046600000     5.00000000000000     0.00000000000000     0.00000000000000     0.00000000000000
  6     1.42455965100000     5.45446145200000     5.00416407700000    -0.00000945807855     0.00000043463698    -0.00001687525304
  6     2.84765535500000     5.45452208200000     5.00098030600000    -0.00000963760252     0.00000154957531    -0.00001031790387
  6     0.71182821300000     6.69337513100000     5.00978759400000    -0.00001557134211    -0.00000383614375    -0.00000309915061
  6     3.56055412900000     6.69230769100000     5.00026945300000    -0.00000539516768    -0.00000107714381     0.00000260782186
  6     1.42442877700000     7.92187013300000     5.01197870300000     0.00000607546904    -0.00000598098274    -0.00002317748919
  6     2.85040106800000     7.92155906100000     5.01124432800000     0.00000316529102     0.00000411015401    -0.00001811302355
  6     0.71800492900000     9.15747314800000     5.00276853900000     0.00001537292088    -0.00000320308554    -0.00000440306154
  6     3.56063606800000     9.15483356500000     5.02284001800000     0.00000024566438     0.00001146118809    -0.00002286568440
  6     1.43306891900000    10.39367379900000     5.00219242900000     0.00000310859924    -0.00000228656844    -0.00000177634242
  6     2.85978274200000    10.39574644500000     5.03942312600000     0.00000822975666     0.00001125331823    -0.00001297296888
  6     5.69497192400000     2.99499287600000     5.00000000000000     0.00000000000000     0.00000000000000     0.00000000000000
  6     7.11871490500000     2.99499287600000     5.00000000000000     0.00000000000000     0.00000000000000     0.00000000000000
  6     4.98310043400000     4.22799046600000     5.00000000000000     0.00000000000000     0.00000000000000     0.00000000000000
  6     7.83058639500000     4.22799046600000     5.00000000000000     0.00000000000000     0.00000000000000     0.00000000000000
  6     5.69621889900000     5.45357977500000     4.99881161900000    -0.00000991161279     0.00000325032869    -0.00002675851993
  6     7.11863598200000     5.45323033900000     5.00147578400000    -0.00001117772919    -0.00000020786986     0.00000024566438
  6     4.98332508400000     6.69350276900000     4.99418166900000    -0.00000722820189     0.00000921241417    -0.00002852541373
  6     7.83173064800000     6.69292452400000     5.00834390000000    -0.00001444695515     0.00000174799654     0.00000093541436
  6     5.69252904400000     7.92148546900000     4.98765026900000    -0.00000267396227     0.00000832424296    -0.00001034624976
  6     7.12242446300000     7.92076012600000     5.00652635500000    -0.00000345819855     0.00000702033203    -0.00002543571174
  6     4.97950926200000     9.15336319800000     4.99632293000000     0.00000410070538     0.00000081258217     0.00000546130809
  6     7.83737671100000     9.15276371900000     5.00043738700000     0.00001021396894    -0.00000341095540    -0.00000674632176
  6     5.68421901900000    10.39123125200000     5.04173548600000     0.00000262671912    -0.00000703922929    -0.00001865159546
  6     7.12578341900000    10.38666315900000     4.96199155400000    -0.00000022676712    -0.00001643116743    -0.00000572586973
  1     0.90511317300000     2.02921292800000     5.00000000000000     0.00000000000000     0.00000000000000     0.00000000000000
  1     3.36611577100000     2.02921292800000     5.00000000000000     0.00000000000000     0.00000000000000     0.00000000000000
  1     5.17634211700000     2.02921292800000     5.00000000000000     0.00000000000000     0.00000000000000     0.00000000000000
  1     7.63734470500000     2.02921292800000     5.00000000000000     0.00000000000000     0.00000000000000     0.00000000000000
  1     3.37909212100000    13.78773345200000     5.04487279700000     0.00001092261619     0.00000022676712     0.00001063915729
  1     7.34185782200000    12.48328921600000     4.35900474800000     0.00001112103741    -0.00000605657178     0.00000615105808
  1     7.58496406800000    13.75806413000000     7.48282533900000     0.00003971259155    -0.00001558079074     0.00000940138677
  6     5.00140790200000    11.61322700100000     5.22579150400000    -0.00000188972598     0.00000007558904    -0.00000968484567
  6     3.57845790700000    11.63402419700000     5.11463953400000     0.00000749276353     0.00001373830790     0.00001092261619
 78     6.18278011700000    13.06894474400000     5.80699034800000    -0.00000967539704    -0.00001537292088    -0.00001104544838
  1     5.01188482800000    13.74983152600000     6.58160873500000    -0.00001651620510     0.00001288793121    -0.00000598098274
  6     1.46135501100000    12.83835363700000     4.88718234500000    -0.00001387058872    -0.00000214483899     0.00000397787320
  1     0.91991239200000    13.78496427700000     4.77181725400000     0.00000085037669     0.00001051632510     0.00001885001669
  1     0.24481847100000    14.88093453100000     6.77051161700000    -0.00003130331092     0.00005761774525     0.00000938248951
  1     7.19053649600000    14.80221435700000     5.96119094400000    -0.00001589259552    -0.00002996160547     0.00000735103408
  6     0.71582981600000    11.62611969600000     4.91936966400000    -0.00001717760919    -0.00000759669845     0.00000823920529
  6     7.84169187600000    11.59118864500000     4.85598092000000    -0.00000926910595    -0.00001666738318     0.00000758724982
  6     2.82686563000000    12.84168734600000     5.02844871200000    -0.00000937304088     0.00000531957864     0.00000041573972
  6     7.71562769000000    14.73124602200000     6.96437794300000    -0.00001751775987    -0.00000802188680     0.00000445030469
  1     7.29242990800000    15.52813277900000     7.59140357700000    -0.00006923011142    -0.00000032125342     0.00000326922595
