CRYSTAL
PRIMVEC
 9.86398064105027 0.00000000000000 0.00000000000000
 0.00000000000000 29.99999507430976 0.00000000000000
 0.00000000000000 0.00000000000000 15.50000271584972
PRIMCOORD
 51 1
  6     0.71187164608783     2.92123956760445     4.99999950785098    -0.00272635491999    -0.04373868110415     0.00095777926900
  6     0.70912156828510     4.35932706042832     5.01067726689492    -0.00004980372830    -0.00039259057314    -0.00001726264686
  6     1.94486922621911     2.20936792151662     4.99999950785098     0.00011478195626     0.03201699428548    -0.00063488179015
  6     1.94311146486888     5.06140673293378     5.03264139258835     0.00001506111609     0.00013686340438     0.00002496328025
  6     3.17786680635039     2.92123956760445     4.99999950785098    -0.00005403671451    -0.04546023092403     0.00194963029750
  6     3.17771095545627     4.35750222400972     5.02130274684146    -0.00000875887993    -0.00043407005848    -0.00002324362960
  6     4.41086438648168     2.20936792151662     4.99999950785098    -0.00026191602136     0.03203911352812    -0.00062990236218
  6     4.41224830296562     5.06137319539960     5.03239380667426    -0.00001727209549     0.00013584295235     0.00002356488302
  6     5.64386196661296     2.92123956760445     4.99999950785098     0.00263893619598    -0.04375005725458     0.00091465572205
  6     5.64635656731708     4.35934678838960     5.01038332027182     0.00004114878330    -0.00040056521679     0.00000719040737
  6     6.87685954674424     2.20936792151662     4.99999950785098    -0.00055438891187     0.03173550070293    -0.00038229156652
  6     6.87843778364681     5.06943601317559     5.00478649765608    -0.00002271450633     0.00001467372226    -0.00004082752988
  6     8.10985712687553     2.92123956760445     4.99999950785098    -0.00003124661914    -0.04243070726446    -0.00033505786556
  6     8.10975947346718     4.36061825549423     4.99868069363927    -0.00000376055471    -0.00036527458404    -0.00000586759918
  6     9.34285470700681     2.20936792151662     4.99999950785098     0.00044315019183     0.03170824140562    -0.00038351043978
  6     9.34102000660758     5.06946560511751     5.00514061456110     0.00001272730450     0.00003661344094    -0.00007216863532
  6     0.70914425544058     7.20279604546453     5.05496949916743    -0.00004780061876     0.00000337316088     0.00002693804390
  6     0.71063174372125     8.63326558603932     5.07938581044822    -0.00018676161898     0.00017183278371     0.00005698468704
  6     1.94185972572553     6.48934616247414     5.07270296356391     0.00008327077548    -0.00014343020217    -0.00000467707181
  6     1.94950726991653     9.31837230705572     5.20514465883516    -0.00000763449297     0.00023790705273     0.00021233906017
  6     3.17751564863957     7.18777912133660     5.11291052145296    -0.00000123777052    -0.00000707702381     0.00012676281899
  6     3.17740813125059     8.61048669554494     5.19644462790975     0.00001203755452     0.00008960135752     0.00005703193019
  6     4.41322483704908     6.48933235290124     5.07228078519247    -0.00006925845731    -0.00016320618459    -0.00000955256485
  6     4.40529123741948     9.31841669496861     5.20389390608988     0.00004239600245     0.00024388803547     0.00022073889217
  6     5.64596496728563     7.20269641926006     5.05418531270646     0.00007543786127    -0.00000975098608     0.00005277059810
  6     5.64431965531471     8.63325868125287     5.07807981941134     0.00020233296109     0.00017312724601     0.00007994485775
  6     6.87934033787547     6.50328692631413     5.00743201726401    -0.00010962300432    -0.00015056391776     0.00005225092345
  6     6.86217306596778     9.36376141397552     4.94751918524834    -0.00016791160229    -0.00055025986060     0.00013466187361
  6     8.10965294247626     7.22516163517005     4.98498159732498    -0.00000832424296     0.00009414614851    -0.00000056691780
  6     8.10956318025242     8.66067068345435     4.93185222479616     0.00001891615710    -0.00021976568329     0.00042873158258
  6     9.33996850627124     6.50328495351800     5.00792324349994     0.00010459633320    -0.00014617030485     0.00001955866393
  6     9.35681519880809     9.36366376056717     4.94869398534269     0.00016540771536    -0.00057272870254     0.00018091291706
  1     1.94450228613926     1.10952322966081     4.99999950785098    -0.00003656619779     0.00954604529351    -0.00039699363468
  1     4.41049744640183     1.10952322966081     4.99999950785098     0.00016836513653     0.00954717912910    -0.00039191972041
  1     6.87649260666440     1.10952322966081     4.99999950785098     0.00016455733867     0.00952439848237    -0.00011968579518
  1     9.34248776692696     1.10952322966081     4.99999950785098    -0.00003404341360     0.00952395439676    -0.00012390933276
  1     5.54711209889328    12.55151883371469     5.06740797875579     0.00002939468768    -0.00461999263659     0.00039652120318
  6     6.78331744552904    10.79851389494465     4.85239292874218    -0.00491686858864    -0.00124919391297     0.00096274924834
  6     1.96564967423561    10.74731490342728     5.29662420169832     0.00026789700409     0.00184284188215     0.00028031250381
  6     0.76423754651504    11.45654102990718     5.11006574943608    -0.00030873398260     0.00517362565806     0.00066987951537
 78     8.11220179507391    11.93530609908764     4.00605845774974    -0.00012922891140     0.00622568335640     0.00455429631276
  6     9.43633565154204    10.79809073017515     4.85531463980806     0.00486168858992    -0.00123830909130     0.00106001344473
  6     4.38920308499393    10.74748850948656     5.29445708515149    -0.00026702773014     0.00184064035138     0.00027367011698
  1     3.17740911764865    12.52806130135221     5.44810239320874    -0.00000551799987    -0.00471354352142    -0.00003291902664
  6     5.59055011044228    11.45638419261498     5.10566641407017     0.00031473386260     0.00519113396930     0.00059997855123
  6     3.17744166878477    11.43220461686958     5.39414148711188     0.00000047243150     0.00555736286497     0.00083499432321
  1     0.80738851622737    12.55159873195788     5.07228571718279    -0.00001517449965    -0.00464899993044     0.00041052407272
  8     8.13440758829304    12.64786625102422     2.36415745132823    -0.00028048257915     0.00526349157722    -0.00687042006756
  8     8.48036106292821    10.38003944823841     0.76848694937520    -0.00580942396532     0.00380715535054    -0.00383836417516
  1     7.68431415164191    10.29929092991465     0.20025163018815     0.00601437419689     0.00119520444161     0.00409252287136
  1     8.37042601228564    11.27439670898180     1.20186488443200     0.00034020736887    -0.00767124814498    -0.00534885049991
