CRYSTAL
PRIMVEC
 9.86398064105027 0.00000000000000 0.00000000000000
 0.00000000000000 29.99999507430976 0.00000000000000
 0.00000000000000 0.00000000000000 15.50000271584972
PRIMCOORD
 53 1
  6     0.71187164608783     2.92123956760445     4.99999950785098    -0.00013334851405    -0.04367460049604    -0.00118982817119
  6     0.71035555226330     4.35902127702845     4.98498751571337    -0.00011136155223    -0.00030179868824     0.00000008503767
  6     1.94486922621911     2.20936792151662     4.99999950785098    -0.00127652879932     0.03193418649287     0.00067029525509
  6     1.94311738325726     5.06218796020055     4.98347438108303     0.00000753055805     0.00013716576053     0.00002707032472
  6     3.17786680635039     2.92123956760445     4.99999950785098     0.00005729649183    -0.04444046864276    -0.00025470671673
  6     3.17776422095173     4.35737201946526     4.99436816130301     0.00000986436964    -0.00035567477604    -0.00001266116409
  6     4.41086438648168     2.20936792151662     4.99999950785098     0.00101675761696     0.03195014522880     0.00066085607380
  6     4.41227690850948     5.06213074911283     4.98404353276602     0.00000770063338     0.00014556559253     0.00006122712188
  6     5.64386196661296     2.92123956760445     4.99999950785098     0.00004996435501    -0.04360832780579    -0.00116688689774
  6     5.64516302565952     4.35899464428072     4.98543139484222     0.00012074404174    -0.00030708047237     0.00003357098210
  6     6.87685954674424     2.20936792151662     4.99999950785098     0.00058617410292     0.03137022611889     0.00088303115771
  6     6.87823557204367     5.06876033050168     4.96041140794619     0.00002430187615    -0.00011157887071    -0.00000004724315
  6     8.10985712687553     2.92123956760445     4.99999950785098    -0.00009986256961    -0.04262523565723    -0.00230399171398
  6     8.10975947346718     4.36017634916151     4.97475659499247     0.00000438416428    -0.00035868888899     0.00002104209883
  6     9.34285470700681     2.20936792151662     4.99999950785098    -0.00059046378090     0.03133229931840     0.00088353193510
  6     9.34134551796873     5.06883233756036     4.95966075901941    -0.00001724374960    -0.00013056116822    -0.00003382609511
  6     0.71022633411690     7.20265893613362     4.91454192516918    -0.00007244264559    -0.00011598193226     0.00008075743992
  6     0.71227015090573     8.63232850787842     4.86228255573289    -0.00025647361052     0.00023590394319     0.00003188912598
  6     1.94195639273581     6.49123708756302     4.96249862624984     0.00012758484980    -0.00010269715859     0.00000833369159
  6     1.94865107639689     9.32606423915962     4.93471672477432     0.00003618825259     0.00016488804072     0.00019501972153
  6     3.17763007081501     7.19358506034192     4.96568469199690     0.00000752110942    -0.00022740962489     0.00014740807537
  6     3.17751663503764     8.61887107908984     4.96683680493577     0.00001868938998     0.00024630688473     0.00008324242959
  6     4.41325541538907     6.49124004675722     4.96472985867084    -0.00012297391840    -0.00009277609718     0.00005010608446
  6     4.40633879216356     9.32556709453531     4.94596067630705    -0.00005438631381     0.00016514315373     0.00030115618141
  6     5.64523108712594     7.20259087466720     4.91963963036447     0.00007878267627    -0.00010307510379     0.00013897044885
  6     5.64314090962810     8.63219534413977     4.87414991084214     0.00027758184976     0.00022131525859     0.00012768878473
  6     6.87892407789242     6.49985623384717     4.90966320034412    -0.00017249418780    -0.00001006279086     0.00005347924534
  6     6.86476334728412     9.35262004784145     4.71443036350613    -0.00024865959358    -0.00084249653536     0.00012471246630
  6     8.10971508555430     7.21847089710123     4.85487371987340    -0.00000542351357     0.00009870038813    -0.00003448749920
  6     8.10981964374909     8.64589246765793     4.72867395155180    -0.00001866104409    -0.00006995765592     0.00027731728812
  6     9.34069844083868     6.49981579152655     4.90721101475675     0.00017540436582    -0.00002017282488     0.00002954586576
  6     9.35510083897267     9.35290511688198     4.70080721984277     0.00022310104965    -0.00080662953619     0.00008946907670
  1     1.94450228613926     1.10952322966081     4.99999950785098    -0.00002013503036     0.00947532229857     0.00023558268977
  1     4.41049744640183     1.10952322966081     4.99999950785098     0.00015135760267     0.00947662620950     0.00022701278244
  1     6.87649260666440     1.10952322966081     4.99999950785098     0.00014957181162     0.00944699530607     0.00045567907511
  1     9.34248776692696     1.10952322966081     4.99999950785098    -0.00001556189348     0.00944643783691     0.00045947742433
  1     5.57699502824534    12.54943457460524     4.75432030121854    -0.00001782011603    -0.00572262885088     0.00117796069201
  6     6.79914321606954    10.77903647877083     4.56054141512704    -0.00327488568131    -0.00096829559410     0.00062910867727
  6     1.95909111350738    10.75824616677369     4.94313859144565    -0.00005630438569     0.00180011517766     0.00030255457864
  6     0.74160760212834    11.45147390305187     4.76729538135377     0.00076511225632     0.00556586663189     0.00044635327738
 78     8.09144502061094    11.87767086020198     3.63801361207088     0.00171515309743    -0.00107001954381     0.00432355132151
  6     9.41609180407242    10.77827103387309     4.53309488899332     0.00341081367133    -0.00085658444257     0.00040165180923
  6     4.39533552175847    10.75739983723469     4.96474564103987     0.00007615595715     0.00174103289477     0.00036003059444
  1     3.17962062210837    12.54187383344387     4.99108542854566    -0.00011716301100    -0.00489613829460     0.00028852336321
  6     5.61316427245995    11.45398527252308     4.81047594300803    -0.00074852046219     0.00545329565504     0.00115973428489
  6     3.17694846975271    11.44456911660313     5.00270223854663    -0.00003384499237     0.00569075862216     0.00046508046188
  1     0.77480680177192    12.54769259562403     4.70842714488798     0.00006672622449    -0.00486029964132     0.00067746676520
  8     7.95617926768216    13.11066745393520     2.10187124688852     0.00229276674164     0.00413273624029    -0.00803938566388
  8     8.00687420978877    14.49814976687630     2.64943363544805    -0.00606477318888     0.00529279177860    -0.00030929145177
  1     7.02751804146339    14.70409291389434     2.64396504458065     0.00894176761567    -0.00084532167571    -0.00008856200823
  8     5.30548106991592    13.85556272081121     2.17952938007744    -0.00309999154151    -0.00124167280355    -0.01028518326619
  1     6.02370709233272    13.26328690800579     1.82654288724520    -0.00796835086415     0.00598848495091     0.00152849541337
  1     4.82276449009065    14.17192819911548     1.38493050114925     0.00419872547165    -0.00274607421063     0.00560077931944
