CRYSTAL
PRIMVEC
 9.86398064105027 0.00000000000000 0.00000000000000
 0.00000000000000 29.99999507430976 0.00000000000000
 0.00000000000000 0.00000000000000 15.50000271584972
PRIMCOORD
 52 1
  6     0.71187164608783     2.92123956760445     4.99999950785098     0.00015488194163    -0.04324889247504     0.00025838223377
  6     0.71068205002252     4.35912386242711     5.00305635545164     0.00015910547921    -0.00057826559968     0.00001834923930
  6     1.94486922621911     2.20936792151662     4.99999950785098    -0.00146631397988     0.03187969624413    -0.00023652755276
  6     1.94322588704431     5.06192261912130     5.01639738926866    -0.00009218083349     0.00017698228701     0.00003427962935
  6     3.17786680635039     2.92123956760445     4.99999950785098     0.00001639337291    -0.04371933975871     0.00114721485025
  6     3.17790133028264     4.35725562449370     5.01188461812538     0.00000931634910    -0.00065415699519    -0.00002453809190
  6     4.41086438648168     2.20936792151662     4.99999950785098     0.00130924940473     0.03190991296261    -0.00024094951157
  6     4.41268231811382     5.06183482969360     5.01663215200792     0.00009688625119     0.00017622639662     0.00001318083874
  6     5.64386196661296     2.92123956760445     4.99999950785098    -0.00005004939268    -0.04330615117235     0.00029007293851
  6     5.64523700551432     4.35911991683486     5.00326251264704    -0.00013216743531    -0.00058675046934     0.00001331311956
  6     6.87685954674424     2.20936792151662     4.99999950785098     0.00084449964490     0.03131237215790    -0.00003255053007
  6     6.87851176350162     5.06966091193421     4.99405054112636     0.00031462992767     0.00005217533441    -0.00001472096541
  6     8.10985712687553     2.92123956760445     4.99999950785098     0.00008480145352    -0.04312318790260    -0.00072870668525
  6     8.11001297776966     4.36085992301994     4.99334230731634     0.00000070864724    -0.00018815056758     0.00001469261952
  6     9.34285470700681     2.20936792151662     4.99999950785098    -0.00096787040576     0.03128235386064    -0.00002639947199
  6     9.34156252554283     5.06976448373094     4.99386608468838    -0.00029759404793     0.00005637997473    -0.00001098875660
  6     0.71050449837098     7.20367788533384     5.01611527942233     0.00022380969689     0.00018292547523     0.00019741022490
  6     0.71246841691661     8.63372524753719     5.02156414232845    -0.00046533557488    -0.00007689295028     0.00019195836544
  6     1.94187057610423     6.49118776765982     5.03719164685806    -0.00004331251955    -0.00027670312718     0.00005076748856
  6     1.94853270862920     9.32308728980215     5.11924615621870     0.00006843642650     0.00014512150693     0.00014617030485
  6     3.17806408596322     7.19282454743449     5.06343575375164     0.00000297631842     0.00010643881604     0.00010056176823
  6     3.17810354188578     8.61658855396950     5.11776261353029     0.00001306745518    -0.00013504926743     0.00014398767134
  6     4.41423589506479     6.49109405984373     5.03745205594699     0.00001401231817    -0.00027669367855     0.00003678351627
  6     4.40781345726940     9.32302711952024     5.11815125436755    -0.00006383494373     0.00015229301704     0.00014551834938
  6     5.64584758591600     7.20341451705073     5.01646446433702    -0.00025911922690     0.00017552719801     0.00018168770471
  6     5.64407108300255     8.63359208379854     5.02115675992797     0.00044292342472    -0.00009125486776     0.00014781436645
  6     6.87998248301520     6.50141572918653     4.98424968996142     0.00037108549144    -0.00028703992831     0.00011900549383
  6     6.86607722950551     9.35955738542630     4.88733312096891    -0.00006204915268    -0.00142732893283     0.00055787545631
  6     8.11031481557727     7.22079879653251     4.95726479812170    -0.00002059801322    -0.00095393367663     0.00037471376533
  6     8.11030396519857     8.65185327115932     4.88372290405428     0.00000677466765     0.00053950731975     0.00146421638404
  6     9.34050017482779     6.50148674984714     4.98397744409572    -0.00040405176123    -0.00028617065436     0.00013547445578
  6     9.35440049634716     9.35975663783525     4.88861543845224     0.00007428512842    -0.00143337605598     0.00067299756324
  1     1.94450228613926     1.10952322966081     4.99999950785098    -0.00002241215017     0.00947244046644    -0.00019116468052
  1     4.41049744640183     1.10952322966081     4.99999950785098     0.00016885646528     0.00947350816162    -0.00019244969419
  1     6.87649260666440     1.10952322966081     4.99999950785098     0.00017513980418     0.00949317076049     0.00002193971867
  1     9.34248776692696     1.10952322966081     4.99999950785098    -0.00002858210551     0.00949156449340     0.00002377275288
  1     5.58362855522645    12.54940202346912     5.01900937134241    -0.00005371546109    -0.00474674600695     0.00043756605155
  6     6.80894801282674    10.79084563639430     4.76318604701871    -0.00430057225354    -0.00009956021346     0.00113590484024
  6     1.95780287763566    10.75400070950578     5.18888881873871     0.00084394217574     0.00239616309884     0.00042586864771
  6     0.74087668116284    11.45293870417706     5.04276578231832    -0.00016713681464     0.00559780300102     0.00057349404157
 78     8.11379186875324    11.91031373133741     3.86625132813382    -0.00020066055359     0.00199222472117     0.00529580589155
  6     9.41297774538404    10.79114550140578     4.76789807057094     0.00427959629512    -0.00011120092552     0.00114330311746
  6     4.39919233818912    10.75404312462254     5.18637251727718    -0.00086540946292     0.00240864473896     0.00038700643285
  1     3.17860561850041    12.53347465392802     5.30660950930126    -0.00001518394828    -0.00472177327808     0.00000790850324
  6     5.61643220924633    11.45220285122124     5.03747474310246     0.00015728189363     0.00565226490387     0.00049465467352
  6     3.17857898575268    11.43658619707033     5.26700661342551    -0.00001118717782     0.00531411733633     0.00056720125404
  1     0.77353928025955    12.54997610714243     5.02401534151775     0.00005852481372    -0.00479239233809     0.00048503596826
  8     8.14560517911676    13.29626219528882     2.49406015798248     0.00049871758439     0.00426981696316    -0.01558593079119
  1     8.18947523301783    12.96119460968911     1.57003007067469    -0.00032308645145     0.00326459612333     0.00709361560350
  8     8.21666430925682     9.35201242663396     1.62297005477521    -0.00634905411725     0.00599216046795    -0.00394082511801
  1     8.18585022013224    10.14231652839104     2.23058633027358    -0.00048496982785    -0.00767389376135    -0.00743830162295
  1     7.38974215216597     9.43499217737873     1.09868370133436     0.00675651683388    -0.00017146428714     0.00411452873044
