CRYSTAL
PRIMVEC
 9.86398064105027 0.00000000000000 0.00000000000000
 0.00000000000000 29.99999507430976 0.00000000000000
 0.00000000000000 0.00000000000000 15.50000271584972
PRIMCOORD
 53 1
  6     0.71187149000000     2.92123941900000     5.00000000000000     0.00000000000000     0.00000000000000     0.00000000000000
  6     0.70907936040000     4.36135047760000     4.99614296120000    -0.00002146728718    -0.00002871438632    -0.00001622329757
  6     1.94486908000000     2.20936792800000     5.00000000000000     0.00000000000000     0.00000000000000     0.00000000000000
  6     1.94399270260000     5.06610486340000     5.00913792820000    -0.00002672072541    -0.00005895000206    -0.00001404066406
  6     3.17786667000000     2.92123941900000     5.00000000000000     0.00000000000000     0.00000000000000     0.00000000000000
  6     3.17790069730000     4.35985156940000     5.00978286770000     0.00000021731849    -0.00000667073272     0.00001962480434
  6     4.41086426000000     2.20936792800000     5.00000000000000     0.00000000000000     0.00000000000000     0.00000000000000
  6     4.41207975320000     5.06509811120000     5.01079825060000     0.00002360267754     0.00000529123275    -0.00002129721184
  6     5.64386185000000     2.92123941900000     5.00000000000000     0.00000000000000     0.00000000000000     0.00000000000000
  6     5.64726319150000     4.36099471040000     4.99797611320000     0.00001764059206    -0.00001544850992     0.00001841537971
  6     6.87685944000000     2.20936792800000     5.00000000000000     0.00000000000000     0.00000000000000     0.00000000000000
  6     6.87862962780000     5.07175913930000     4.97835053870000    -0.00000603767452    -0.00003234266021    -0.00000711481833
  6     8.10985703000000     2.92123941900000     5.00000000000000     0.00000000000000     0.00000000000000     0.00000000000000
  6     8.11019888190000     4.36121969980000     4.98247266100000    -0.00000862659912    -0.00000701088340     0.00002005944132
  6     9.34285462000000     2.20936792800000     5.00000000000000     0.00000000000000     0.00000000000000     0.00000000000000
  6     9.34200714250000     5.07196679900000     4.97542095230000    -0.00001486269486     0.00000761559571    -0.00003105764654
  6     0.70884017680000     7.21010362270000     4.97319485950000    -0.00001514615376     0.00002193971867     0.00000245664378
  6     0.71159587410000     8.64370707780000     4.94873070890000     0.00000533847590     0.00003881497171     0.00000634003068
  6     1.94351427900000     6.49597027590000     5.01898458490000    -0.00005017222487    -0.00003530953001     0.00000325032869
  6     1.95204806810000     9.33349534300000     5.07472476930000     0.00001275565039     0.00002019172214    -0.00001004389360
  6     3.17881463200000     7.19628429820000     5.04551049300000    -0.00004027950934    -0.00004826360163     0.00003564968068
  6     3.17967028360000     8.62405271520000     5.09173848620000    -0.00001937913996    -0.00003576306424     0.00003505441700
  6     4.41302527120000     6.49421617660000     5.02295896910000     0.00000468652044    -0.00001309580107    -0.00003687800257
  6     4.40671600060000     9.33383029590000     5.08205224150000    -0.00002380109877     0.00000184248283    -0.00002338535905
  6     5.64740025320000     7.20790284450000     4.98362213550000    -0.00000073699313     0.00001988936598     0.00002738212951
  6     5.64578671350000     8.63978608720000     4.96684415480000    -0.00000588649644     0.00001989881461     0.00005144778991
  6     6.87904528100000     6.50725306230000     4.94763522620000    -0.00002931909864    -0.00000805968132    -0.00001702643111
  6     6.85839760240000     9.36366664020000     4.79463142660000    -0.00000825810255     0.00000019842123    -0.00001318083874
  6     8.11070198900000     7.23156738430000     4.89370127570000    -0.00003277729719    -0.00001909568107     0.00000374165745
  6     8.10926966880000     8.66173938220000     4.78355948330000    -0.00002279954399    -0.00002277119810    -0.00000222042803
  6     9.34209571020000     6.50759960740000     4.94093421520000    -0.00001531622910    -0.00000690694847    -0.00003751106078
  6     9.35975579880000     9.36819621520000     4.76936348050000    -0.00001915237285     0.00000224877392    -0.00002344205083
  1     1.94450233900000     1.10952337400000     5.00000000000000     0.00000000000000     0.00000000000000     0.00000000000000
  1     4.41049752000000     1.10952337400000     5.00000000000000     0.00000000000000     0.00000000000000     0.00000000000000
  1     6.87649270100000     1.10952337400000     5.00000000000000     0.00000000000000     0.00000000000000     0.00000000000000
  1     9.34248788200000     1.10952337400000     5.00000000000000     0.00000000000000     0.00000000000000     0.00000000000000
  1     5.57341293970000    12.55838785650000     4.93228191080000    -0.00002032400296     0.00000605657178    -0.00000882502034
  6     6.77498164100000    10.79383139580000     4.65437267660000    -0.00002436801656    -0.00001317139011    -0.00002444360560
  6     1.96933276070000    10.76334882700000     5.14184134980000     0.00001337925997     0.00002453809190    -0.00003692524572
  6     0.76053031040000    11.46857209140000     4.92158717200000    -0.00000708647244     0.00000447865058     0.00000728489367
 78     8.09916284440000    11.88904245040000     3.79515655680000    -0.00001727209549    -0.00004631718386     0.00000271175679
  6     9.46784769940000    10.79661482280000     4.61324857010000    -0.00001677131811     0.00000038739383     0.00002927185549
  6     4.39430622440000    10.76424413490000     5.14401925460000    -0.00000261727049    -0.00000507391427    -0.00002506721518
  1     3.18184623130000    12.54156199070000     5.28342321620000    -0.00006847422102    -0.00001364382160    -0.00002357433165
  6     5.60890279620000    11.46399049510000     4.95091968780000    -0.00000106769518     0.00000372276019     0.00002816636579
  6     3.18198764100000    11.44808866610000     5.24162463840000     0.00000294797253    -0.00000177634242     0.00001508001335
  1     0.80048215270000    12.55962570050000     4.87915295000000    -0.00000475266085     0.00001128166412     0.00003890000938
  8     9.41951947360000    13.31956841240000     2.52650179070000    -0.00000917461965     0.00001522174280     0.00001668628044
  1    10.16715402250000    12.78021445080000     2.12768723040000    -0.00003122772188    -0.00001020452031    -0.00000806912995
  1     8.95153758740000    13.71322203610000     1.76207354060000     0.00002721205417    -0.00000175744516    -0.00001987046872
  8    11.57439128900000    11.83939738630000     1.59569224710000    -0.00001336036271     0.00000083147943    -0.00000947697581
  1    11.32581884310000    11.01216596080000     1.13297078430000    -0.00000734158545     0.00004470146815     0.00004669512906
  1    11.98024571700000    11.52479066510000     2.43387116430000     0.00001186747918     0.00003173794790    -0.00001558079074
