CRYSTAL
PRIMVEC
     8.5428654021    0.0000000000    0.0000000000
     0.0000000000   29.9999975181    0.0000000000
     0.0000000000    0.0000000000   15.4999955853
PRIMCOORD
 46 1
         0.0000000000     0.0000000000     0.0000000000      0.0795141500     0.0147607400    -0.0002647300
         0.0000000000     0.0000000000     0.0000000000     -0.0795128100     0.0138015600    -0.0000273100
         0.0000000000     0.0000000000     0.0000000000      0.0246506100    -0.0254287500     0.0002957000
         0.0000000000     0.0000000000     0.0000000000     -0.0254388800    -0.0262253900     0.0000821100
         0.0000000000     0.0000000000     0.0000000000      0.0001400300    -0.0000886200     0.0000065600
         0.0000000000     0.0000000000     0.0000000000     -0.0001833100    -0.0001284400    -0.0000446100
         0.0000000000     0.0000000000     0.0000000000      0.0000958100     0.0001375800    -0.0000443800
         0.0000000000     0.0000000000     0.0000000000     -0.0001193800     0.0000919200    -0.0000220200
         0.0000000000     0.0000000000     0.0000000000     -0.0003221400    -0.0000841100    -0.0000554300
         0.0000000000     0.0000000000     0.0000000000      0.0002737800    -0.0000988200     0.0000858200
         0.0000000000     0.0000000000     0.0000000000     -0.0002795000    -0.0001281500     0.0000062100
         0.0000000000     0.0000000000     0.0000000000      0.0002105800    -0.0001129400     0.0000150900
         0.0000000000     0.0000000000     0.0000000000     -0.0006642200     0.0008028700    -0.0002699900
         0.0000000000     0.0000000000     0.0000000000      0.0005763700     0.0003300100    -0.0000732300
         0.0000000000     0.0000000000     0.0000000000      0.0777567600     0.0151260500    -0.0000645600
         0.0000000000     0.0000000000     0.0000000000     -0.0779102100     0.0143441200    -0.0002907400
         0.0000000000     0.0000000000     0.0000000000      0.0249756500    -0.0318151800    -0.0001110600
         0.0000000000     0.0000000000     0.0000000000     -0.0239605300    -0.0293968300     0.0005807000
         0.0000000000     0.0000000000     0.0000000000      0.0002099400    -0.0001506200    -0.0000464500
         0.0000000000     0.0000000000     0.0000000000     -0.0002032600    -0.0002064700     0.0000070200
         0.0000000000     0.0000000000     0.0000000000      0.0000748500     0.0001964800    -0.0000098800
         0.0000000000     0.0000000000     0.0000000000     -0.0001650700     0.0002407800     0.0000360500
         0.0000000000     0.0000000000     0.0000000000     -0.0002302500    -0.0001213900     0.0000311100
         0.0000000000     0.0000000000     0.0000000000      0.0002310300    -0.0002313500    -0.0000095600
         0.0000000000     0.0000000000     0.0000000000     -0.0001476000    -0.0000580100    -0.0000199400
         0.0000000000     0.0000000000     0.0000000000      0.0001312200     0.0000497500     0.0000792400
         0.0000000000     0.0000000000     0.0000000000     -0.0002174000     0.0003916200     0.0000332600
         0.0000000000     0.0000000000     0.0000000000      0.0002680800     0.0001973100    -0.0000900300
         0.0000000000     0.0000000000     0.0000000000      0.0081101100     0.0111632900    -0.0000402400
         0.0000000000     0.0000000000     0.0000000000     -0.0081874500     0.0111727200    -0.0000134100
         0.0000000000     0.0000000000     0.0000000000      0.0081863100     0.0110467900     0.0000081700
         0.0000000000     0.0000000000     0.0000000000     -0.0081551100     0.0111973700    -0.0000754900
         0.0000000000     0.0000000000     0.0000000000     -0.0031149500    -0.0045392000    -0.0001509300
         0.0000000000     0.0000000000     0.0000000000     -0.0000977000    -0.0027646700     0.0037827200
         0.0000000000     0.0000000000     0.0000000000      0.0016025700     0.0016992500     0.0001207000
         0.0000000000     0.0000000000     0.0000000000      0.0014664300    -0.0047321300    -0.0002976700
         0.0000000000     0.0000000000     0.0000000000     -0.0034282200    -0.0048072100     0.0005048000
         0.0000000000     0.0000000000     0.0000000000     -0.0000491400    -0.0012109400    -0.0044786200
         0.0000000000     0.0000000000     0.0000000000      0.0004619700     0.0014184200    -0.0002439800
         0.0000000000     0.0000000000     0.0000000000      0.0003553200    -0.0002325700    -0.0001270600
         0.0000000000     0.0000000000     0.0000000000      0.0025752100     0.0051452600     0.0001117500
         0.0000000000     0.0000000000     0.0000000000      0.0008155900     0.0014451400    -0.0019655500
         0.0000000000     0.0000000000     0.0000000000     -0.0006302500     0.0008119600    -0.0016923100
         0.0000000000     0.0000000000     0.0000000000     -0.0030845600     0.0080850400     0.0018736700
         0.0000000000     0.0000000000     0.0000000000      0.0038230700     0.0084502800     0.0010511500
         0.0000000000     0.0000000000     0.0000000000     -0.0004034900     0.0004555000     0.0018173500
