CRYSTAL
PRIMVEC
     8.5428654021    0.0000000000    0.0000000000
     0.0000000000   29.9999975181    0.0000000000
     0.0000000000    0.0000000000   15.4999955853
PRIMCOORD
 47 1
         0.0000000000     0.0000000000     0.0000000000      0.0801215500     0.0146512900    -0.0002815300
         0.0000000000     0.0000000000     0.0000000000     -0.0802493800     0.0131445100    -0.0000333600
         0.0000000000     0.0000000000     0.0000000000      0.0239494100    -0.0251177800     0.0003010700
         0.0000000000     0.0000000000     0.0000000000     -0.0246367800    -0.0258072400     0.0000725000
         0.0000000000     0.0000000000     0.0000000000      0.0001801200    -0.0000530500     0.0000420000
         0.0000000000     0.0000000000     0.0000000000     -0.0001538600    -0.0001136100    -0.0000084900
         0.0000000000     0.0000000000     0.0000000000      0.0000322300     0.0000592700     0.0000044200
         0.0000000000     0.0000000000     0.0000000000     -0.0000006100     0.0000462000    -0.0000644600
         0.0000000000     0.0000000000     0.0000000000     -0.0001427900    -0.0000188400    -0.0000122200
         0.0000000000     0.0000000000     0.0000000000      0.0001471400    -0.0001217100    -0.0000091300
         0.0000000000     0.0000000000     0.0000000000     -0.0002883700    -0.0001267400    -0.0000354400
         0.0000000000     0.0000000000     0.0000000000      0.0000557400     0.0000814000    -0.0000390200
         0.0000000000     0.0000000000     0.0000000000     -0.0002585000     0.0006244600    -0.0002135100
         0.0000000000     0.0000000000     0.0000000000      0.0003185700    -0.0003837900    -0.0000632400
         0.0000000000     0.0000000000     0.0000000000      0.0786419700     0.0149349800    -0.0000692600
         0.0000000000     0.0000000000     0.0000000000     -0.0788205500     0.0132874300    -0.0003137000
         0.0000000000     0.0000000000     0.0000000000      0.0242490600    -0.0314715200    -0.0001092500
         0.0000000000     0.0000000000     0.0000000000     -0.0232790300    -0.0285283200     0.0006408500
         0.0000000000     0.0000000000     0.0000000000      0.0001821600    -0.0000823200     0.0000232800
         0.0000000000     0.0000000000     0.0000000000     -0.0001793800    -0.0001972800    -0.0000171200
         0.0000000000     0.0000000000     0.0000000000     -0.0000120600     0.0001197500     0.0000276200
         0.0000000000     0.0000000000     0.0000000000     -0.0000621600     0.0002120500    -0.0000359700
         0.0000000000     0.0000000000     0.0000000000     -0.0001853400     0.0000678800    -0.0000061800
         0.0000000000     0.0000000000     0.0000000000      0.0001588800    -0.0002002800    -0.0000540200
         0.0000000000     0.0000000000     0.0000000000     -0.0000613100    -0.0001591600    -0.0000155800
         0.0000000000     0.0000000000     0.0000000000      0.0001265700     0.0000358200     0.0000847300
         0.0000000000     0.0000000000     0.0000000000     -0.0001479600     0.0005514100     0.0000345800
         0.0000000000     0.0000000000     0.0000000000      0.0002075400     0.0001516800    -0.0001116700
         0.0000000000     0.0000000000     0.0000000000      0.0080005000     0.0111267000    -0.0000413600
         0.0000000000     0.0000000000     0.0000000000     -0.0081075400     0.0111542600    -0.0000100700
         0.0000000000     0.0000000000     0.0000000000      0.0080993600     0.0109771500     0.0000078800
         0.0000000000     0.0000000000     0.0000000000     -0.0080868400     0.0111854700    -0.0000811200
         0.0000000000     0.0000000000     0.0000000000     -0.0034116000    -0.0047802600    -0.0001374800
         0.0000000000     0.0000000000     0.0000000000      0.0000455600    -0.0027715500     0.0037964500
         0.0000000000     0.0000000000     0.0000000000      0.0015831300     0.0014493100     0.0000842500
         0.0000000000     0.0000000000     0.0000000000      0.0007941200    -0.0031243600    -0.0001776100
         0.0000000000     0.0000000000     0.0000000000     -0.0032244300    -0.0046218100     0.0004051500
         0.0000000000     0.0000000000     0.0000000000      0.0001393900    -0.0012979500    -0.0044705300
         0.0000000000     0.0000000000     0.0000000000      0.0004808500     0.0014457100    -0.0002318300
         0.0000000000     0.0000000000     0.0000000000      0.0006657200    -0.0003225600    -0.0001575100
         0.0000000000     0.0000000000     0.0000000000      0.0025678100     0.0053129000     0.0001252200
         0.0000000000     0.0000000000     0.0000000000      0.0006153500     0.0014357200    -0.0018399800
         0.0000000000     0.0000000000     0.0000000000      0.0041187800     0.0011376400    -0.0076592000
         0.0000000000     0.0000000000     0.0000000000      0.0008470300    -0.0017607400     0.0006208600
         0.0000000000     0.0000000000     0.0000000000      0.0040684600     0.0082781900     0.0009591200
         0.0000000000     0.0000000000     0.0000000000      0.0043484600    -0.0010895800     0.0075058300
         0.0000000000     0.0000000000     0.0000000000     -0.0134369500     0.0106792800     0.0015640300
