CRYSTAL
PRIMVEC
     8.5428654021    0.0000000000    0.0000000000
     0.0000000000   29.9999975181    0.0000000000
     0.0000000000    0.0000000000   15.4999955853
PRIMCOORD
 48 1
         0.0000000000     0.0000000000     0.0000000000      0.0838012400     0.0098936000    -0.0002068300
         0.0000000000     0.0000000000     0.0000000000     -0.0842079500     0.0101661500     0.0000598900
         0.0000000000     0.0000000000     0.0000000000      0.0210782200    -0.0225837800     0.0001768600
         0.0000000000     0.0000000000     0.0000000000     -0.0205855300    -0.0218104300    -0.0000474600
         0.0000000000     0.0000000000     0.0000000000      0.0001565200    -0.0000943000     0.0000101900
         0.0000000000     0.0000000000     0.0000000000     -0.0001670900    -0.0000912100    -0.0000184500
         0.0000000000     0.0000000000     0.0000000000      0.0000152600     0.0001224000     0.0000184900
         0.0000000000     0.0000000000     0.0000000000     -0.0000383300     0.0001442800     0.0000200000
         0.0000000000     0.0000000000     0.0000000000      0.0000538400    -0.0001707200    -0.0000291700
         0.0000000000     0.0000000000     0.0000000000     -0.0001111900    -0.0001853800    -0.0000011800
         0.0000000000     0.0000000000     0.0000000000     -0.0002083100     0.0001347900    -0.0000698800
         0.0000000000     0.0000000000     0.0000000000      0.0001007400     0.0001507600    -0.0002467300
         0.0000000000     0.0000000000     0.0000000000     -0.0004778700     0.0006980600    -0.0001195100
         0.0000000000     0.0000000000     0.0000000000     -0.0001194700     0.0000921700    -0.0002191800
         0.0000000000     0.0000000000     0.0000000000      0.0841589000     0.0091044700    -0.0000545000
         0.0000000000     0.0000000000     0.0000000000     -0.0847528200     0.0093631900    -0.0001746700
         0.0000000000     0.0000000000     0.0000000000      0.0199226400    -0.0262643200    -0.0000207600
         0.0000000000     0.0000000000     0.0000000000     -0.0194426600    -0.0229693100     0.0004206000
         0.0000000000     0.0000000000     0.0000000000      0.0001616100    -0.0001212100    -0.0000167600
         0.0000000000     0.0000000000     0.0000000000     -0.0001914800    -0.0000600700    -0.0000052500
         0.0000000000     0.0000000000     0.0000000000      0.0000211700     0.0001372800     0.0000060700
         0.0000000000     0.0000000000     0.0000000000     -0.0000246400     0.0000819900     0.0000049700
         0.0000000000     0.0000000000     0.0000000000      0.0001084200    -0.0002012900     0.0000063300
         0.0000000000     0.0000000000     0.0000000000     -0.0000609000    -0.0001465000    -0.0000298800
         0.0000000000     0.0000000000     0.0000000000     -0.0001507900     0.0001145800    -0.0000183600
         0.0000000000     0.0000000000     0.0000000000      0.0000903600     0.0000739400     0.0000544800
         0.0000000000     0.0000000000     0.0000000000     -0.0001659500     0.0003514900    -0.0001146500
         0.0000000000     0.0000000000     0.0000000000      0.0002540300     0.0003115900    -0.0000100200
         0.0000000000     0.0000000000     0.0000000000      0.0085641600     0.0112358000    -0.0000365500
         0.0000000000     0.0000000000     0.0000000000     -0.0085570300     0.0111492600     0.0000088600
         0.0000000000     0.0000000000     0.0000000000      0.0086358400     0.0111684800    -0.0000097800
         0.0000000000     0.0000000000     0.0000000000     -0.0085580400     0.0111327400    -0.0000466000
         0.0000000000     0.0000000000     0.0000000000     -0.0032494200    -0.0046083300    -0.0001919700
         0.0000000000     0.0000000000     0.0000000000      0.0006629500    -0.0032751500     0.0045748200
         0.0000000000     0.0000000000     0.0000000000      0.0019557500     0.0015007400    -0.0000041400
         0.0000000000     0.0000000000     0.0000000000      0.0013407700    -0.0040008800     0.0011949400
         0.0000000000     0.0000000000     0.0000000000     -0.0037916300    -0.0054643900     0.0000491200
         0.0000000000     0.0000000000     0.0000000000     -0.0005242600    -0.0021968000    -0.0045393400
         0.0000000000     0.0000000000     0.0000000000      0.0008976800     0.0014186800    -0.0001626800
         0.0000000000     0.0000000000     0.0000000000      0.0003940100     0.0003127500    -0.0002774000
         0.0000000000     0.0000000000     0.0000000000      0.0022295200     0.0051095300     0.0002010400
         0.0000000000     0.0000000000     0.0000000000      0.0005102100     0.0016663400    -0.0014207700
         0.0000000000     0.0000000000     0.0000000000     -0.0012468300     0.0006093400     0.0018781300
         0.0000000000     0.0000000000     0.0000000000     -0.0023850700     0.0053151500     0.0005486900
         0.0000000000     0.0000000000     0.0000000000      0.0048106800     0.0080661500    -0.0001679100
         0.0000000000     0.0000000000     0.0000000000      0.0020309300     0.0071998800    -0.0042198000
         0.0000000000     0.0000000000     0.0000000000     -0.0088613500     0.0008597800    -0.0003530700
         0.0000000000     0.0000000000     0.0000000000      0.0059231600    -0.0034412600     0.0035997400
