CRYSTAL
PRIMVEC
     8.5428654021    0.0000000000    0.0000000000
     0.0000000000   29.9999975181    0.0000000000
     0.0000000000    0.0000000000   15.4999955853
PRIMCOORD
 49 1
         0.0000000000     0.0000000000     0.0000000000      0.0829756200     0.0121807500    -0.0001516300
         0.0000000000     0.0000000000     0.0000000000     -0.0831139300     0.0117925600     0.0000616100
         0.0000000000     0.0000000000     0.0000000000      0.0222026100    -0.0199577100     0.0004252100
         0.0000000000     0.0000000000     0.0000000000     -0.0209444800    -0.0202484500    -0.0000157500
         0.0000000000     0.0000000000     0.0000000000      0.0001402300    -0.0000923700    -0.0005305700
         0.0000000000     0.0000000000     0.0000000000     -0.0001080600    -0.0005892200     0.0002381900
         0.0000000000     0.0000000000     0.0000000000      0.0006074000    -0.0011177500    -0.0003081600
         0.0000000000     0.0000000000     0.0000000000     -0.0002996600     0.0002844400     0.0004078400
         0.0000000000     0.0000000000     0.0000000000      0.0004581300     0.0002372200     0.0000980500
         0.0000000000     0.0000000000     0.0000000000      0.0015917400     0.0005856800    -0.0004548100
         0.0000000000     0.0000000000     0.0000000000     -0.0005435900    -0.0010966300     0.0003101000
         0.0000000000     0.0000000000     0.0000000000      0.0005737700    -0.0007212600    -0.0007267000
         0.0000000000     0.0000000000     0.0000000000     -0.0004611900     0.0001295600    -0.0006377300
         0.0000000000     0.0000000000     0.0000000000      0.0001826000     0.0013592300    -0.0002921900
         0.0000000000     0.0000000000     0.0000000000      0.0819751700     0.0121525300    -0.0000186700
         0.0000000000     0.0000000000     0.0000000000     -0.0821486300     0.0118236400    -0.0000444900
         0.0000000000     0.0000000000     0.0000000000      0.0219953900    -0.0250094800    -0.0001993000
         0.0000000000     0.0000000000     0.0000000000     -0.0196935700    -0.0230644800    -0.0001766300
         0.0000000000     0.0000000000     0.0000000000     -0.0003151900    -0.0004510600    -0.0003443900
         0.0000000000     0.0000000000     0.0000000000      0.0006236500    -0.0005528900     0.0004865400
         0.0000000000     0.0000000000     0.0000000000      0.0008156200    -0.0007126900    -0.0005644100
         0.0000000000     0.0000000000     0.0000000000      0.0001804600     0.0003239900     0.0002190800
         0.0000000000     0.0000000000     0.0000000000     -0.0003881500    -0.0013516800     0.0001004000
         0.0000000000     0.0000000000     0.0000000000      0.0007570600    -0.0009399700     0.0002942800
         0.0000000000     0.0000000000     0.0000000000     -0.0001441500    -0.0002147400     0.0008089100
         0.0000000000     0.0000000000     0.0000000000      0.0009419600    -0.0001819100     0.0002428300
         0.0000000000     0.0000000000     0.0000000000     -0.0002844400    -0.0002978200     0.0001656100
         0.0000000000     0.0000000000     0.0000000000     -0.0017865300     0.0007425100    -0.0007091800
         0.0000000000     0.0000000000     0.0000000000      0.0082835600     0.0112216600    -0.0000485900
         0.0000000000     0.0000000000     0.0000000000     -0.0083122000     0.0112272100     0.0000075600
         0.0000000000     0.0000000000     0.0000000000      0.0083551000     0.0111321700     0.0000102400
         0.0000000000     0.0000000000     0.0000000000     -0.0082980600     0.0112154400     0.0000094600
         0.0000000000     0.0000000000     0.0000000000     -0.0049211800    -0.0043481000    -0.0002291000
         0.0000000000     0.0000000000     0.0000000000      0.0006435800    -0.0050737600     0.0041330000
         0.0000000000     0.0000000000     0.0000000000      0.0005649500     0.0010764600    -0.0002493800
         0.0000000000     0.0000000000     0.0000000000      0.0007303100    -0.0045475500     0.0008409200
         0.0000000000     0.0000000000     0.0000000000     -0.0044012100    -0.0061286000     0.0000987300
         0.0000000000     0.0000000000     0.0000000000      0.0002095000    -0.0018417200    -0.0046847700
         0.0000000000     0.0000000000     0.0000000000     -0.0002954200     0.0011986400     0.0000598000
         0.0000000000     0.0000000000     0.0000000000     -0.0016462900    -0.0006027400    -0.0004235100
         0.0000000000     0.0000000000     0.0000000000      0.0023693000     0.0053658800     0.0003146700
         0.0000000000     0.0000000000     0.0000000000      0.0002571300     0.0009337700    -0.0011575600
         0.0000000000     0.0000000000     0.0000000000     -0.0002524800     0.0004759900    -0.0017517100
         0.0000000000     0.0000000000     0.0000000000     -0.0021210600     0.0041171200     0.0012894500
         0.0000000000     0.0000000000     0.0000000000      0.0051576200     0.0069140800     0.0012174500
         0.0000000000     0.0000000000     0.0000000000     -0.0022292400    -0.0031966100     0.0037361900
         0.0000000000     0.0000000000     0.0000000000      0.0004700600     0.0027823100    -0.0017392400
         0.0000000000     0.0000000000     0.0000000000      0.0011163300     0.0109674900     0.0010142500
         0.0000000000     0.0000000000     0.0000000000     -0.0014701400    -0.0079011000    -0.0011319100
