CRYSTAL
PRIMVEC
     8.5428654021    0.0000000000    0.0000000000
     0.0000000000   29.9999975181    0.0000000000
     0.0000000000    0.0000000000   15.4999955853
PRIMCOORD
 45 1
         0.0000000000     0.0000000000     0.0000000000      0.0818603900     0.0120294100    -0.0001412300
         0.0000000000     0.0000000000     0.0000000000     -0.0815848600     0.0117792700     0.0001123500
         0.0000000000     0.0000000000     0.0000000000      0.0200240500    -0.0253149600     0.0003306300
         0.0000000000     0.0000000000     0.0000000000     -0.0215499200    -0.0257140200    -0.0001487100
         0.0000000000     0.0000000000     0.0000000000      0.0001445800    -0.0000498500    -0.0000258600
         0.0000000000     0.0000000000     0.0000000000     -0.0001225500    -0.0000386600     0.0000044700
         0.0000000000     0.0000000000     0.0000000000     -0.0001050000     0.0000404500     0.0000365400
         0.0000000000     0.0000000000     0.0000000000      0.0001510500    -0.0000269100     0.0000074200
         0.0000000000     0.0000000000     0.0000000000      0.0002599600    -0.0001190400    -0.0000152300
         0.0000000000     0.0000000000     0.0000000000     -0.0002282700    -0.0000284300     0.0000937600
         0.0000000000     0.0000000000     0.0000000000      0.0000436900     0.0003250800    -0.0000098500
         0.0000000000     0.0000000000     0.0000000000      0.0000871900     0.0001387800    -0.0000762500
         0.0000000000     0.0000000000     0.0000000000     -0.0000107000    -0.0005899600    -0.0004601400
         0.0000000000     0.0000000000     0.0000000000      0.0004152300    -0.0002371100     0.0002075600
         0.0000000000     0.0000000000     0.0000000000      0.0833009800     0.0108589600     0.0000913000
         0.0000000000     0.0000000000     0.0000000000     -0.0830736500     0.0108606900    -0.0000176900
         0.0000000000     0.0000000000     0.0000000000      0.0209985100    -0.0243023700    -0.0003717900
         0.0000000000     0.0000000000     0.0000000000     -0.0199337100    -0.0253808500     0.0001473800
         0.0000000000     0.0000000000     0.0000000000      0.0001366100     0.0000783900    -0.0000273300
         0.0000000000     0.0000000000     0.0000000000     -0.0001541700    -0.0000500400    -0.0000049500
         0.0000000000     0.0000000000     0.0000000000     -0.0002033100    -0.0001396300    -0.0000414000
         0.0000000000     0.0000000000     0.0000000000      0.0001060600    -0.0000204600     0.0000270300
         0.0000000000     0.0000000000     0.0000000000      0.0003510800     0.0000281800     0.0000808400
         0.0000000000     0.0000000000     0.0000000000     -0.0004154200    -0.0002401400    -0.0000155300
         0.0000000000     0.0000000000     0.0000000000     -0.0001169200     0.0001597100    -0.0000293500
         0.0000000000     0.0000000000     0.0000000000      0.0001222200     0.0004388100     0.0000109800
         0.0000000000     0.0000000000     0.0000000000      0.0002104700     0.0009213900     0.0001047900
         0.0000000000     0.0000000000     0.0000000000     -0.0004956800     0.0006854700    -0.0001340800
         0.0000000000     0.0000000000     0.0000000000      0.0083272100     0.0111229100    -0.0000315000
         0.0000000000     0.0000000000     0.0000000000     -0.0083599500     0.0111728200     0.0000288800
         0.0000000000     0.0000000000     0.0000000000      0.0083876300     0.0111150700     0.0000325200
         0.0000000000     0.0000000000     0.0000000000     -0.0083910700     0.0111309900    -0.0000078500
         0.0000000000     0.0000000000     0.0000000000      0.0025623000    -0.0004645100     0.0018795100
         0.0000000000     0.0000000000     0.0000000000     -0.0041900900    -0.0038385600     0.0001083600
         0.0000000000     0.0000000000     0.0000000000      0.0017407000     0.0042511200     0.0013034000
         0.0000000000     0.0000000000     0.0000000000      0.0037324000     0.0014551500    -0.0037811500
         0.0000000000     0.0000000000     0.0000000000      0.0028347700     0.0049905400     0.0079025900
         0.0000000000     0.0000000000     0.0000000000     -0.0030377600    -0.0050934600    -0.0004692100
         0.0000000000     0.0000000000     0.0000000000     -0.0060270600     0.0009332000    -0.0006740200
         0.0000000000     0.0000000000     0.0000000000     -0.0036945100    -0.0043623000     0.0012572700
         0.0000000000     0.0000000000     0.0000000000      0.0030169100    -0.0047112000     0.0006128200
         0.0000000000     0.0000000000     0.0000000000     -0.0018220400     0.0045518900    -0.0012781100
         0.0000000000     0.0000000000     0.0000000000      0.0017731200     0.0081959000    -0.0042910300
         0.0000000000     0.0000000000     0.0000000000      0.0035053000     0.0104254800    -0.0049993000
         0.0000000000     0.0000000000     0.0000000000     -0.0005757600    -0.0069672000     0.0026711500
