CRYSTAL
PRIMVEC
 9.86398064105027 0.00000000000000 0.00000000000000
 0.00000000000000 29.99999507430976 0.00000000000000
 0.00000000000000 0.00000000000000 15.50000271584972
PRIMCOORD
 46 1
  6     0.71187149000000     2.92123941900000     5.00000000000000     0.00000000000000     0.00000000000000     0.00000000000000
  6     0.71641417400000     4.36012394700000     5.00000961000000     0.00000419519168    -0.00000097320888     0.00000007558904
  6     1.94486908000000     2.20936792800000     5.00000000000000     0.00000000000000     0.00000000000000     0.00000000000000
  6     1.94296439600000     5.07628010900000     5.00001245000000     0.00001777287288     0.00000957146211     0.00000005669178
  6     3.17786667000000     2.92123941900000     5.00000000000000     0.00000000000000     0.00000000000000     0.00000000000000
  6     3.17572212800000     4.36131437500000     5.00001115600000    -0.00001610991401    -0.00000914627376     0.00000015117808
  6     4.41086426000000     2.20936792800000     5.00000000000000     0.00000000000000     0.00000000000000     0.00000000000000
  6     4.40758058400000     5.06437321200000     5.00002078600000    -0.00000340150677     0.00000407235950    -0.00000005669178
  6     5.64386185000000     2.92123941900000     5.00000000000000     0.00000000000000     0.00000000000000     0.00000000000000
  6     5.63989712100000     4.35517990900000     5.00001503800000    -0.00002143894129    -0.00000589594507    -0.00000020786986
  6     6.87685944000000     2.20936792800000     5.00000000000000     0.00000000000000     0.00000000000000     0.00000000000000
  6     6.87621997700000     5.05646563000000     5.00002103000000     0.00002110823924    -0.00003225762254    -0.00000009448630
  6     8.10985703000000     2.92123941900000     5.00000000000000     0.00000000000000     0.00000000000000     0.00000000000000
  6     8.11155547400000     4.35719313200000     5.00001379000000     0.00000766283886    -0.00000872108542    -0.00000016062671
  6     9.34285462000000     2.20936792800000     5.00000000000000     0.00000000000000     0.00000000000000     0.00000000000000
  6     9.34875643300000     5.06822374200000     5.00001346500000     0.00003097260887     0.00001958700982    -0.00000011338356
  6     0.70853026800000     7.23451433700000     4.99998989500000    -0.00000241884926     0.00002038069474     0.00000023621575
  6     0.68687768500000     8.67982413000000     4.99997141500000    -0.00001763114343     0.00001428632844    -0.00000006614041
  6     1.93925187700000     6.51358876400000     5.00000544000000    -0.00001682800989     0.00000143619175     0.00000002834589
  6     1.95159490700000     9.38105777400000     4.99997309000000     0.00001730044138     0.00001867994135     0.00000007558904
  6     3.17776239400000     7.21940232200000     5.00000902800000     0.00001361547571     0.00001096985934    -0.00000004724315
  6     3.18380109500000     8.65292371700000     4.99999135900000    -0.00002073974267     0.00004884941668     0.00000003779452
  6     4.40696759000000     6.49629789500000     5.00001934200000    -0.00002839313291     0.00002640892062    -0.00000025511301
  6     4.43168383200000     9.34361200500000     4.99998477400000    -0.00001064860592     0.00004557074210    -0.00000000944863
  6     5.64547634600000     7.19270356000000     5.00001425400000    -0.00000595263685     0.00001946417763    -0.00000022676712
  6     5.65166735200000     8.61695495500000     4.99999177400000    -0.00002326252686     0.00001938858859    -0.00000005669178
  6     6.87777659200000     6.47966858400000     5.00001692800000    -0.00001780121877     0.00000219208214    -0.00000008503767
  6     6.88692984400000     9.30401335700000     4.99997845000000    -0.00002701363294     0.00006203970405    -0.00000003779452
  6     8.11209651400000     7.18252994600000     4.99999754900000    -0.00001624219483     0.00005134385498     0.00000009448630
  6     8.11928298300000     8.59467319700000     4.99997652100000    -0.00002345149946     0.00005345089945     0.00000000000000
  6     9.35170665500000     6.49239914400000     4.99999865900000    -0.00000600932863     0.00003345759854     0.00000013228082
  6     9.30548039500000     9.38794026000000     4.99996687100000    -0.00001699808522     0.00005305405700    -0.00000014172945
  1     1.94450233900000     1.10952337400000     5.00000000000000     0.00000000000000     0.00000000000000     0.00000000000000
  1     4.41049752000000     1.10952337400000     5.00000000000000     0.00000000000000     0.00000000000000     0.00000000000000
  1     6.87649270100000     1.10952337400000     5.00000000000000     0.00000000000000     0.00000000000000     0.00000000000000
  1     9.34248788200000     1.10952337400000     5.00000000000000     0.00000000000000     0.00000000000000     0.00000000000000
  1     3.26519889300000    12.56807001300000     4.99994497000000    -0.00001243439697    -0.00000414794853    -0.00000053857191
  6     3.25335333800000    11.47156216100000     4.99995299600000     0.00002403731451    -0.00000082203080    -0.00000009448630
 78     8.79045809100000    11.37949682300000     5.00000871300000    -0.00007705357699     0.00002442470834    -0.00000003779452
  1     1.12234146200000    11.40773213000000     4.99991955100000     0.00001370996201     0.00001372885927     0.00000001889726
  6     6.95460395100000    10.73721885700000     4.99997748300000    -0.00001551465033     0.00001905788655    -0.00000025511301
  6     4.49322778800000    10.77076740500000     4.99996602800000     0.00000884391760     0.00003316469102    -0.00000026456164
  6     2.04878139200000    10.80167501400000     4.99995256600000     0.00000398732183     0.00000086927395    -0.00000006614041
  6     5.75348242100000    11.44301633200000     4.99996524100000     0.00001300131477     0.00001246274286    -0.00000032125342
  1     5.76286711600000    12.53838719100000     4.99997058100000     0.00005907283425    -0.00002782621511    -0.00000054802054
  1     8.29496987300000    12.94302481000000     5.00007397400000     0.00004076138947    -0.00003983542374     0.00000030235616
