CRYSTAL
PRIMVEC
 9.86398064105027 0.00000000000000 0.00000000000000
 0.00000000000000 29.99999507430976 0.00000000000000
 0.00000000000000 0.00000000000000 15.50000271584972
PRIMCOORD
 52 1
  6     0.71187149000000     2.92123941900000     5.00000000000000     0.00000000000000     0.00000000000000     0.00000000000000
  6     0.71647968700000     4.35979255000000     4.99928017700000    -0.00000696364025     0.00000246609241     0.00003336311224
  6     1.94486908000000     2.20936792800000     5.00000000000000     0.00000000000000     0.00000000000000     0.00000000000000
  6     1.94459363600000     5.07630967500000     4.99770601300000     0.00000182358557    -0.00001649730784    -0.00000786126009
  6     3.17786667000000     2.92123941900000     5.00000000000000     0.00000000000000     0.00000000000000     0.00000000000000
  6     3.17659446200000     4.36139873700000     4.99774730700000     0.00001556189348     0.00000714316422     0.00005125881731
  6     4.41086426000000     2.20936792800000     5.00000000000000     0.00000000000000     0.00000000000000     0.00000000000000
  6     4.40812045400000     5.06544984800000     4.99794807800000     0.00002469871861     0.00001591149278     0.00000170075339
  6     5.64386185000000     2.92123941900000     5.00000000000000     0.00000000000000     0.00000000000000     0.00000000000000
  6     5.63983530100000     4.35528717900000     5.00027265400000     0.00002035234885     0.00000560303754    -0.00001842482834
  6     6.87685944000000     2.20936792800000     5.00000000000000     0.00000000000000     0.00000000000000     0.00000000000000
  6     6.87434870400000     5.05796838300000     5.00403227000000     0.00003157732119    -0.00001694139344     0.00001088482167
  6     8.10985703000000     2.92123941900000     5.00000000000000     0.00000000000000     0.00000000000000     0.00000000000000
  6     8.11035068900000     4.35705920200000     5.00239655300000     0.00002157122211    -0.00000886281486    -0.00001101710249
  6     9.34285462000000     2.20936792800000     5.00000000000000     0.00000000000000     0.00000000000000     0.00000000000000
  6     9.34813517000000     5.06568197700000     5.00077114800000    -0.00000048188013     0.00001957756119    -0.00000196531502
  6     0.70843222000000     7.22746363300000     4.99708018400000     0.00001518394828    -0.00001308635244    -0.00003291902664
  6     0.68850731600000     8.66854499400000     4.98944638500000     0.00002062635911    -0.00000337316088    -0.00004044958468
  6     1.94279575500000     6.51256577200000     4.99834232700000     0.00001101710249    -0.00001288793121    -0.00002655065007
  6     1.95405617700000     9.36654899600000     5.02330609700000    -0.00000470541770     0.00000664238683    -0.00002471761587
  6     3.18194660900000     7.22083997800000     4.99642733300000     0.00000533847590     0.00000402511635     0.00003444970468
  6     3.19037863600000     8.65503760400000     5.00287284700000    -0.00001542961266     0.00000430857524     0.00000851321556
  6     4.40788328700000     6.49744524100000     4.99650285100000     0.00001716816056     0.00000909903061     0.00002108934198
  6     4.43063513300000     9.36915146400000     4.99153505800000    -0.00001771618110     0.00000946752718     0.00000779511968
  6     5.64276240500000     7.20065143100000     5.00101067100000     0.00002049407829    -0.00000912737650     0.00001507056472
  6     5.64689474500000     8.62768787900000     4.99603675000000    -0.00001590204415    -0.00001272730450    -0.00000882502034
  6     6.87391112200000     6.48205416000000     5.00830139500000     0.00002699473568    -0.00000963760252     0.00000633058205
  6     6.88578854500000     9.30685809500000     4.99945451900000    -0.00002588924598    -0.00001800908863     0.00000862659912
  6     8.11047864100000     7.17996283900000     5.00672384700000     0.00000239995200     0.00001839648245    -0.00003103874928
  6     8.11637030900000     8.58990630000000     4.99228643300000    -0.00000358103074     0.00001323753052     0.00003302296157
  6     9.35075764600000     6.48915022600000     4.99916914200000     0.00000065195546     0.00001531622910    -0.00005094701252
  6     9.30602684800000     9.36854019600000     4.92970903200000     0.00001394617776    -0.00000059526368     0.00000892895527
  1     1.94450233900000     1.10952337400000     5.00000000000000     0.00000000000000     0.00000000000000     0.00000000000000
  1     4.41049752000000     1.10952337400000     5.00000000000000     0.00000000000000     0.00000000000000     0.00000000000000
  1     6.87649270100000     1.10952337400000     5.00000000000000     0.00000000000000     0.00000000000000     0.00000000000000
  1     9.34248788200000     1.10952337400000     5.00000000000000     0.00000000000000     0.00000000000000     0.00000000000000
  1     8.44697308800000    12.89123966500000     5.41033284400000     0.00002335701316     0.00000356213348    -0.00001114938330
  6     6.96032922400000    10.72968148500000     4.93691751500000    -0.00003020726985    -0.00002419794122     0.00000631168479
  1     3.19024969400000    13.59793201200000     4.50522148200000     0.00001820750985     0.00000943918129     0.00002023896529
  6     2.04614407100000    10.77206071800000     5.14064426100000    -0.00004393612912     0.00002322473234     0.00001159346891
 78     8.83573001600000    11.34877865300000     4.99818274000000    -0.00002014447899    -0.00002907343426     0.00001021396894
  6     3.10265230400000    12.97720221500000     5.41407326300000    -0.00000264561638     0.00000889116075    -0.00002335701316
  1     5.84755947700000    13.62037574700000     5.23544114000000     0.00003009388629    -0.00000681246217    -0.00002551130078
  6     5.77440487600000    11.47148265300000     4.80601960700000    -0.00002656009870     0.00000567862658     0.00001140449631
  1     2.11330738300000    13.18399377800000     5.85532573900000     0.00000541406494    -0.00002159011937    -0.00000505501701
  6     3.22773204400000    11.50049132100000     5.12753109100000    -0.00002992381095     0.00001718705782     0.00001336981134
  1     5.06391968500000    13.18015681500000     3.68594544700000    -0.00001847207149     0.00003491268755    -0.00000427078072
  1     1.11488314900000    11.34368786500000     5.35111815700000    -0.00000911792787    -0.00002443415697     0.00000833369159
  1     3.87341414000000    13.32155176800000     6.12249732600000    -0.00000615105808    -0.00000398732183    -0.00001670517770
  6     5.87222710600000    12.91433100900000     4.38546549300000    -0.00000111493833    -0.00000605657178    -0.00002101375294
  1     6.84380998800000    13.06938989500000     3.89024257200000     0.00000817306488    -0.00001189582507     0.00002529398229
  6     4.48887416100000    10.80762236000000     4.96096363000000    -0.00002991436232     0.00000094486299     0.00003422293757
