CRYSTAL
PRIMVEC
 9.86398064105027 0.00000000000000 0.00000000000000
 0.00000000000000 29.99999507430976 0.00000000000000
 0.00000000000000 0.00000000000000 15.50000271584972
PRIMCOORD
 44 1
  6     0.71187149000000     2.92123941900000     5.00000000000000     0.00000000000000     0.00000000000000     0.00000000000000
  6     0.71536220100000     4.35712980000000     5.00001450700000     0.00003792680050    -0.00002839313291     0.00000000000000
  6     1.94486908000000     2.20936792800000     5.00000000000000     0.00000000000000     0.00000000000000     0.00000000000000
  6     1.94779251500000     5.06585244200000     5.00001536900000     0.00000922186280     0.00001250998601     0.00000014172945
  6     3.17786667000000     2.92123941900000     5.00000000000000     0.00000000000000     0.00000000000000     0.00000000000000
  6     3.18154200900000     4.35952847400000     5.00000759500000     0.00001060136277     0.00001601542771     0.00000017952397
  6     4.41086426000000     2.20936792800000     5.00000000000000     0.00000000000000     0.00000000000000     0.00000000000000
  6     4.41106317100000     5.07232469000000     5.00000773700000    -0.00000576366425     0.00001976653379     0.00000025511301
  6     5.64386185000000     2.92123941900000     5.00000000000000     0.00000000000000     0.00000000000000     0.00000000000000
  6     5.64048229900000     4.35952157100000     5.00000353700000    -0.00001023286620     0.00001760279754     0.00000035904794
  6     6.87685944000000     2.20936792800000     5.00000000000000     0.00000000000000     0.00000000000000     0.00000000000000
  6     6.87434228200000     5.06582415900000     5.00001115600000    -0.00002264836592     0.00001202810589     0.00000028345890
  6     8.10985703000000     2.92123941900000     5.00000000000000     0.00000000000000     0.00000000000000     0.00000000000000
  6     8.10668957100000     4.35712726600000     5.00001169200000    -0.00003891890664    -0.00002839313291     0.00000018897260
  6     9.34285462000000     2.20936792800000     5.00000000000000     0.00000000000000     0.00000000000000     0.00000000000000
  6     9.34306798200000     5.06127809700000     5.00002099400000    -0.00000616050671    -0.00001275565039    -0.00000016062671
  6     0.71246137500000     7.19100439800000     5.00000616500000    -0.00003454419098    -0.00004087477303    -0.00000024566438
  6     0.71494407100000     8.61220674100000     4.99999373300000    -0.00002656954733     0.00002707032472    -0.00000016062671
  6     1.94814901900000     6.49457296900000     5.00000957600000     0.00000285348624     0.00000450699647     0.00000009448630
  6     1.92839588300000     9.36447928500000     4.99998669600000    -0.00001318083874    -0.00000115273285    -0.00000010393493
  6     3.17715063600000     7.22288599300000     5.00000226300000    -0.00000641561972    -0.00002620105077     0.00000018897260
  6     3.17277089100000     8.65713265600000     4.99998971000000    -0.00001345484900    -0.00002871438632     0.00000011338356
  6     4.41121038500000     6.50949495700000     5.00000457100000    -0.00000462982866     0.00005098480704     0.00000036849657
  6     4.41144851400000     9.36714672800000     4.99998781700000    -0.00001801853726    -0.00004148893397     0.00000001889726
  6     5.64537055200000     7.22283266500000     5.00000056600000    -0.00001331311956    -0.00002454754053     0.00000017952397
  6     5.65001156800000     8.65706345800000     4.99998954200000    -0.00000775732516    -0.00002831754387     0.00000001889726
  6     6.87427747900000     6.49451738800000     5.00000649300000    -0.00001301076340     0.00000984547238     0.00000018897260
  6     6.89445454100000     9.36433611200000     4.99998629700000    -0.00001174464699     0.00000702033203    -0.00000035904794
  6     8.11004952600000     7.19092428500000     5.00000427400000     0.00002039014337    -0.00003953306758    -0.00000016062671
  6     8.10780717600000     8.61208405800000     4.99998964500000     0.00000584870192     0.00003069859861    -0.00000044408561
  6     9.34321607200000     6.48191791800000     5.00001589100000    -0.00000639672246    -0.00002767503703    -0.00000027401027
  6     9.34335543100000     9.30181682500000     4.99999027500000    -0.00000997775319     0.00001451309556    -0.00000051967465
  1     1.94450233900000     1.10952337400000     5.00000000000000     0.00000000000000     0.00000000000000     0.00000000000000
  1     4.41049752000000     1.10952337400000     5.00000000000000     0.00000000000000     0.00000000000000     0.00000000000000
  1     6.87649270100000     1.10952337400000     5.00000000000000     0.00000000000000     0.00000000000000     0.00000000000000
  1     9.34248788200000     1.10952337400000     5.00000000000000     0.00000000000000     0.00000000000000     0.00000000000000
  6     6.99577399900000    10.80077468000000     4.99999238300000    -0.00002094761253    -0.00000375110608    -0.00000035904794
  6     3.09386634600000    11.45776201100000     4.99998788400000    -0.00001728154412    -0.00000040629109    -0.00000024566438
  1     3.11924164800000    12.55805560600000     4.99999841100000    -0.00007805513176     0.00002323418097    -0.00000051967465
 78     9.34322655100000    11.17740157700000     4.99999198300000    -0.00001000609908     0.00004993600912    -0.00000046298287
  6     5.72936850800000    11.45771498100000     4.99999525500000    -0.00001751775987    -0.00000065195546    -0.00000023621575
  6     1.82733769000000    10.80093896400000     4.99998650700000    -0.00000739827723    -0.00000608491767    -0.00000017007534
  1     5.70426634100000    12.55801548400000     5.00000586100000     0.00003314579376     0.00001926575640    -0.00000009448630
  6     4.41157944200000    10.79788900200000     4.99998676200000    -0.00001712091741    -0.00005158951936    -0.00000017952397
