CRYSTAL
PRIMVEC
 9.86398064105027 0.00000000000000 0.00000000000000
 0.00000000000000 29.99999507430976 0.00000000000000
 0.00000000000000 0.00000000000000 15.50000271584972
PRIMCOORD
 48 1
  6     0.71187149000000     2.92123941900000     5.00000000000000     0.00000000000000     0.00000000000000     0.00000000000000
  6     0.71071712900000     4.36152451100000     5.00365994400000     0.00001173519836     0.00000230546570    -0.00002713646513
  6     1.94486908000000     2.20936792800000     5.00000000000000     0.00000000000000     0.00000000000000     0.00000000000000
  6     1.94172332500000     5.06829784200000     5.01080935700000     0.00001435246885    -0.00000311804787     0.00001735713316
  6     3.17786667000000     2.92123941900000     5.00000000000000     0.00000000000000     0.00000000000000     0.00000000000000
  6     3.17381956600000     4.35676215800000     5.01005685400000     0.00000988326690    -0.00000121887326    -0.00001176354425
  6     4.41086426000000     2.20936792800000     5.00000000000000     0.00000000000000     0.00000000000000     0.00000000000000
  6     4.40848689100000     5.05762918800000     5.02252214500000    -0.00000365661978     0.00001223597575    -0.00002347984535
  6     5.64386185000000     2.92123941900000     5.00000000000000     0.00000000000000     0.00000000000000     0.00000000000000
  6     5.64424131000000     4.35668970800000     5.01219244900000    -0.00000040629109     0.00001584535237     0.00002776007470
  6     6.87685944000000     2.20936792800000     5.00000000000000     0.00000000000000     0.00000000000000     0.00000000000000
  6     6.88296575700000     5.06507651100000     5.01817504200000     0.00000688805121     0.00001814136944    -0.00002335701316
  6     8.10985703000000     2.92123941900000     5.00000000000000     0.00000000000000     0.00000000000000     0.00000000000000
  6     8.11475066000000     4.35924810800000     5.00731807500000     0.00000731323956     0.00000945807855     0.00001093206482
  6     9.34285462000000     2.20936792800000     5.00000000000000     0.00000000000000     0.00000000000000     0.00000000000000
  6     9.34239554000000     5.07376805800000     5.00946557700000     0.00000991161279     0.00000264561638    -0.00002312079741
  6     0.70828083600000     7.22502707300000     5.01247321300000     0.00000411015401    -0.00001213204082    -0.00001786735918
  6     0.70315938900000     8.66308600600000     5.01615011500000     0.00000899509568    -0.00002054132144    -0.00000205035269
  6     1.93969795800000     6.50140924800000     5.02188891700000    -0.00000292907527    -0.00001459813322    -0.00000848486967
  6     1.97217567900000     9.36658178200000     5.01608639700000    -0.00001472096541    -0.00001578866059    -0.00002148618444
  6     3.17837989500000     7.19910931700000     5.05478138700000    -0.00000462038003     0.00001348319489     0.00000257002734
  6     3.18493658700000     8.62859674400000     5.06724302600000    -0.00000121887326     0.00000090706847    -0.00000567862658
  6     4.40896376800000     6.48283003900000     5.05097157600000    -0.00000425188346     0.00001029900661     0.00001650675647
  6     4.42557466700000     9.30653923900000     5.08687327000000     0.00000882502034    -0.00000930690047    -0.00000674632176
  6     5.64856254700000     7.18167919600000     5.06526873900000    -0.00000463927729    -0.00001083757852    -0.00000601877726
  6     5.65862516200000     8.59055954500000     5.09410842900000     0.00000119052737    -0.00000598098274    -0.00003772837927
  6     6.88806061500000     6.48842277900000     5.04025122200000     0.00000007558904     0.00000515895194    -0.00004237710519
  6     6.84344121600000     9.37932313400000     5.10682549900000     0.00000308970198    -0.00000434636976    -0.00002353653713
  6     8.10899784900000     7.22242325000000     5.03920196000000     0.00001302966066     0.00001604377360    -0.00001832089341
  6     8.09544437900000     8.67064112900000     5.07435521200000    -0.00000136060271     0.00000325977732    -0.00000270230816
  6     9.33892796600000     6.51115954100000     5.01849761300000     0.00000891005801     0.00000233381159    -0.00003183243420
  6     9.33998942500000     9.36275871100000     5.07194485400000    -0.00000719040737    -0.00002049407829    -0.00000916517102
  1     1.94450233900000     1.10952337400000     5.00000000000000     0.00000000000000     0.00000000000000     0.00000000000000
  1     4.41049752000000     1.10952337400000     5.00000000000000     0.00000000000000     0.00000000000000     0.00000000000000
  1     6.87649270100000     1.10952337400000     5.00000000000000     0.00000000000000     0.00000000000000     0.00000000000000
  1     9.34248788200000     1.10952337400000     5.00000000000000     0.00000000000000     0.00000000000000     0.00000000000000
  1     3.31498458400000    12.53344752700000     4.89924857500000    -0.00003055686916    -0.00002044683514    -0.00000571642110
  6     4.50347340700000    10.73012583200000     5.06828683500000     0.00000715261285    -0.00000665183546    -0.00001821695848
  1     0.84587422400000    12.57422944500000     4.95349425700000    -0.00002936634179     0.00002020117077    -0.00003639612245
 78     6.34304060100000    11.36791444200000     5.15255126000000     0.00003632053341     0.00000258892460     0.00000840928063
  6     2.05175034500000    10.77710769900000     4.91573258000000    -0.00004006219086    -0.00000281569172     0.00002431132478
  1     9.32098076700000    11.09919256100000     6.31644408900000    -0.00003084977669     0.00000536682179    -0.00000454479099
  6     0.77148681600000    11.52293376200000     4.62338347300000    -0.00003933464635    -0.00000229601707    -0.00003631108478
  1     8.48321586800000    11.32202184100000     4.74428731500000     0.00001078088674    -0.00000543296220    -0.00004681796125
  6     3.29312454200000    11.43966527500000     4.96340126600000    -0.00003290012938    -0.00001449419830     0.00004143224220
  1     5.86123992100000    12.93776285600000     5.19181433900000     0.00000547075672     0.00004372825927    -0.00000237160611
  1     0.65234041300000    11.55197390200000     3.51818434100000     0.00002280899262     0.00003342925265    -0.00006231371432
  6     9.38930438400000    10.86466086200000     5.23251426900000    -0.00001667683181    -0.00001262336957    -0.00001263281820
