CRYSTAL
PRIMVEC
 8.54286592742127 0.00000000000000 0.00000000000000
 0.00000000000000 29.99999936305714 0.00000000000000
 0.00000000000000 0.00000000000000 15.49999653852868
PRIMCOORD
 45 1
  6     1.42374298100000     2.99499287600000     5.00000000000000     0.00000000000000     0.00000000000000     0.00000000000000
  6     2.84748596200000     2.99499287600000     5.00000000000000     0.00000000000000     0.00000000000000     0.00000000000000
  6     0.71187149100000     4.22799046600000     5.00000000000000     0.00000000000000     0.00000000000000     0.00000000000000
  6     3.55935745300000     4.22799046600000     5.00000000000000     0.00000000000000     0.00000000000000     0.00000000000000
  6     1.42498877500000     5.45435154700000     4.99921409400000    -0.00001412570173     0.00001085647578     0.00002048462966
  6     2.84811454400000     5.45604972300000     4.99631851100000    -0.00003554574576    -0.00001705477700    -0.00006041453970
  6     0.71190625700000     6.69132032900000     4.99783933700000    -0.00000676521902     0.00001958700982    -0.00000903289020
  6     3.56045244300000     6.69502404600000     4.98823452500000    -0.00000851321556    -0.00002771283155     0.00000842817789
  6     1.42549490100000     7.91948900100000     4.99158832100000     0.00002191137278    -0.00000371331156    -0.00000210704447
  6     2.84956945000000     7.92611014900000     4.98971252200000     0.00000719985600    -0.00002365936932    -0.00000702033203
  6     0.71865285000000     9.15325599200000     4.97763341200000     0.00004519279690     0.00001515560239     0.00001506111609
  6     3.55997254400000     9.16423921300000     4.99410499900000    -0.00000670852724    -0.00000693529436    -0.00001461703048
  6     1.43330063900000    10.38424437400000     4.99268973400000     0.00003315524239    -0.00001533512636     0.00000316529102
  6     2.85846535500000    10.40647179800000     5.02786371700000     0.00002829864661    -0.00000486604441    -0.00002264836592
  6     5.69497192400000     2.99499287600000     5.00000000000000     0.00000000000000     0.00000000000000     0.00000000000000
  6     7.11871490500000     2.99499287600000     5.00000000000000     0.00000000000000     0.00000000000000     0.00000000000000
  6     4.98310043400000     4.22799046600000     5.00000000000000     0.00000000000000     0.00000000000000     0.00000000000000
  6     7.83058639500000     4.22799046600000     5.00000000000000     0.00000000000000     0.00000000000000     0.00000000000000
  6     5.69568035500000     5.45437278300000     4.99541061000000    -0.00001131001001     0.00000454479099     0.00004646836194
  6     7.11820652800000     5.45308487600000     4.99827556800000     0.00000371331156     0.00000212594173     0.00006951357031
  6     4.98280653700000     6.69451378800000     4.98431505800000    -0.00002419794122    -0.00000774787653    -0.00000241884926
  6     7.83167236000000     6.69085877600000     4.99883093000000    -0.00002717425965     0.00000164406161    -0.00002671127678
  6     5.69279357700000     7.92262754000000     4.96994906900000    -0.00003505441700     0.00001398397228    -0.00002073974267
  6     7.12102263600000     7.91861343700000     4.98788469900000    -0.00002830809524    -0.00000625499301    -0.00002211924264
  6     4.97857826300000     9.15657342100000     4.96474677800000    -0.00002304520837    -0.00000379834923     0.00004833919067
  6     7.83579599800000     9.14875032000000     4.96776543900000     0.00001713036604    -0.00002893170481    -0.00001031790387
  6     5.68403047700000    10.39370298600000     4.96007463600000     0.00000277789720     0.00001547685581     0.00003457253687
  6     7.12601109800000    10.37954375000000     4.88692501500000     0.00000805023269    -0.00002804353360    -0.00000975098608
  1     0.90511317300000     2.02921292800000     5.00000000000000     0.00000000000000     0.00000000000000     0.00000000000000
  1     3.36611577100000     2.02921292800000     5.00000000000000     0.00000000000000     0.00000000000000     0.00000000000000
  1     5.17634211700000     2.02921292800000     5.00000000000000     0.00000000000000     0.00000000000000     0.00000000000000
  1     7.63734470500000     2.02921292800000     5.00000000000000     0.00000000000000     0.00000000000000     0.00000000000000
  6     3.38483148500000    14.16035545000000     5.57579064400000     0.00000311804787     0.00001807522904    -0.00000872108542
  6     4.69587364000000    14.38611399800000     5.78719861300000     0.00000341095540     0.00000590539370     0.00000147398627
  1     0.85570951600000    13.76423642600000     5.09060770800000    -0.00002027675981    -0.00000964705115    -0.00000184248283
  6     3.56997104000000    11.65555161600000     5.12077820200000     0.00000522509235     0.00001269895861     0.00003219148213
  6     2.79759925800000    12.87765913400000     5.23046124200000     0.00000373220882     0.00000325032869    -0.00000308970198
 78     6.13488029800000    13.16426372800000     5.37256389800000     0.00001545795855    -0.00000312749650     0.00000158736983
  1     2.66525478900000    14.98254383600000     5.70973934400000     0.00003707642380     0.00001214148945     0.00006225702254
  1     7.39977793300000    12.44770692000000     4.20082493600000     0.00002016337625     0.00001169740384    -0.00001411625310
  6     0.71176153200000    11.61269988000000     4.92782572300000     0.00000605657178     0.00000347709581     0.00002653175281
  6     4.98397461700000    11.61043576200000     5.11236522600000     0.00000808802721    -0.00000009448630     0.00002942303357
  1     5.02543823100000    15.39217177200000     6.11305450600000    -0.00001093206482     0.00001319973600    -0.00001486269486
  6     7.85043805000000    11.57309691300000     4.78191924900000     0.00002038069474    -0.00002634278021    -0.00002467982135
  6     1.42591728200000    12.82582238900000     5.05350114200000    -0.00000686915395     0.00000380779786     0.00000807857858
