CRYSTAL
PRIMVEC
     8.5428654021    0.0000000000    0.0000000000
     0.0000000000   29.9999975181    0.0000000000
     0.0000000000    0.0000000000   15.4999955853
PRIMCOORD
 46 1
         0.0000000000     0.0000000000     0.0000000000      0.0857498600     0.0095212800    -0.0008737400
         0.0000000000     0.0000000000     0.0000000000     -0.0859079000     0.0089654000    -0.0002787400
         0.0000000000     0.0000000000     0.0000000000      0.0149004700    -0.0257690700     0.0011322400
         0.0000000000     0.0000000000     0.0000000000     -0.0154777100    -0.0244972100     0.0001619200
         0.0000000000     0.0000000000     0.0000000000      0.0001652500    -0.0000662700     0.0000159500
         0.0000000000     0.0000000000     0.0000000000     -0.0001473600    -0.0000805100    -0.0000225500
         0.0000000000     0.0000000000     0.0000000000     -0.0000854700     0.0000037500    -0.0000104200
         0.0000000000     0.0000000000     0.0000000000      0.0001010700    -0.0000421200    -0.0000560800
         0.0000000000     0.0000000000     0.0000000000      0.0001254000     0.0000517100    -0.0001245100
         0.0000000000     0.0000000000     0.0000000000     -0.0000989900     0.0000255900    -0.0000029700
         0.0000000000     0.0000000000     0.0000000000     -0.0000736600     0.0001486200    -0.0000138900
         0.0000000000     0.0000000000     0.0000000000     -0.0000471400     0.0001290400    -0.0000828300
         0.0000000000     0.0000000000     0.0000000000     -0.0000776100    -0.0000890800    -0.0002922100
         0.0000000000     0.0000000000     0.0000000000      0.0004364400    -0.0001923100    -0.0002579400
         0.0000000000     0.0000000000     0.0000000000      0.0861334600     0.0100544400    -0.0004146800
         0.0000000000     0.0000000000     0.0000000000     -0.0859223200     0.0094320400    -0.0008257800
         0.0000000000     0.0000000000     0.0000000000      0.0164849600    -0.0210340300     0.0005149200
         0.0000000000     0.0000000000     0.0000000000     -0.0157681100    -0.0219336600     0.0014493500
         0.0000000000     0.0000000000     0.0000000000      0.0001455500    -0.0000614000    -0.0000132900
         0.0000000000     0.0000000000     0.0000000000     -0.0001293400    -0.0000681100    -0.0000407200
         0.0000000000     0.0000000000     0.0000000000     -0.0000413000    -0.0000561100    -0.0000378600
         0.0000000000     0.0000000000     0.0000000000      0.0000654800    -0.0000253100     0.0000164800
         0.0000000000     0.0000000000     0.0000000000      0.0001717700    -0.0000659000    -0.0000493600
         0.0000000000     0.0000000000     0.0000000000     -0.0001787100    -0.0001185200    -0.0000534000
         0.0000000000     0.0000000000     0.0000000000     -0.0000261900     0.0002687100    -0.0000592900
         0.0000000000     0.0000000000     0.0000000000      0.0000511400     0.0002773500     0.0000409400
         0.0000000000     0.0000000000     0.0000000000     -0.0003348800    -0.0000944000     0.0003686500
         0.0000000000     0.0000000000     0.0000000000      0.0003637900    -0.0002871700    -0.0006402300
         0.0000000000     0.0000000000     0.0000000000      0.0084001000     0.0111162200    -0.0001657300
         0.0000000000     0.0000000000     0.0000000000     -0.0084240300     0.0112072000    -0.0000183100
         0.0000000000     0.0000000000     0.0000000000      0.0083560800     0.0112127100    -0.0000681300
         0.0000000000     0.0000000000     0.0000000000     -0.0083718600     0.0112367400    -0.0001738500
         0.0000000000     0.0000000000     0.0000000000     -0.0014383400     0.0008321000    -0.0060392500
         0.0000000000     0.0000000000     0.0000000000     -0.0038598200    -0.0038148500    -0.0021458600
         0.0000000000     0.0000000000     0.0000000000     -0.0005238200    -0.0012239900     0.0007307500
         0.0000000000     0.0000000000     0.0000000000     -0.0011277300     0.0062783200     0.0045903200
         0.0000000000     0.0000000000     0.0000000000      0.0008922700    -0.0001843000    -0.0015484600
         0.0000000000     0.0000000000     0.0000000000     -0.0007822900     0.0003394400     0.0007657300
         0.0000000000     0.0000000000     0.0000000000      0.0016705900     0.0003237900     0.0055359100
         0.0000000000     0.0000000000     0.0000000000     -0.0029121500     0.0041000900    -0.0030586100
         0.0000000000     0.0000000000     0.0000000000     -0.0022693200    -0.0032175400     0.0008294300
         0.0000000000     0.0000000000     0.0000000000      0.0000911000     0.0016496400    -0.0025869300
         0.0000000000     0.0000000000     0.0000000000      0.0018403300     0.0072804800    -0.0039399900
         0.0000000000     0.0000000000     0.0000000000      0.0044859400    -0.0044885800     0.0010819700
         0.0000000000     0.0000000000     0.0000000000      0.0023046700    -0.0026082800    -0.0004041000
         0.0000000000     0.0000000000     0.0000000000      0.0010903700     0.0055640600     0.0070651300
