CRYSTAL
PRIMVEC
     8.5428654021    0.0000000000    0.0000000000
     0.0000000000   29.9999975181    0.0000000000
     0.0000000000    0.0000000000   15.4999955853
PRIMCOORD
 47 1
         0.0000000000     0.0000000000     0.0000000000      0.0821131600     0.0107559800    -0.0001348500
         0.0000000000     0.0000000000     0.0000000000     -0.0826950900     0.0111434800     0.0002952800
         0.0000000000     0.0000000000     0.0000000000      0.0211152800    -0.0265528700     0.0001895000
         0.0000000000     0.0000000000     0.0000000000     -0.0198817800    -0.0254929200    -0.0005787600
         0.0000000000     0.0000000000     0.0000000000      0.0001061800     0.0001983900    -0.0000152900
         0.0000000000     0.0000000000     0.0000000000     -0.0001493700     0.0001270800     0.0000301700
         0.0000000000     0.0000000000     0.0000000000     -0.0000834400    -0.0001967700    -0.0000357100
         0.0000000000     0.0000000000     0.0000000000     -0.0001446100     0.0001687900    -0.0000451800
         0.0000000000     0.0000000000     0.0000000000      0.0006869600    -0.0001961800    -0.0000916600
         0.0000000000     0.0000000000     0.0000000000     -0.0006525200    -0.0003765700    -0.0000313600
         0.0000000000     0.0000000000     0.0000000000     -0.0000694600     0.0005331200    -0.0000552000
         0.0000000000     0.0000000000     0.0000000000     -0.0001608200     0.0006575300     0.0000283000
         0.0000000000     0.0000000000     0.0000000000     -0.0002307300    -0.0001770800    -0.0004324400
         0.0000000000     0.0000000000     0.0000000000     -0.0001431500    -0.0002474600     0.0000655800
         0.0000000000     0.0000000000     0.0000000000      0.0830608800     0.0109756600     0.0001667800
         0.0000000000     0.0000000000     0.0000000000     -0.0831813700     0.0107740500    -0.0000982700
         0.0000000000     0.0000000000     0.0000000000      0.0208557400    -0.0242520000    -0.0003367500
         0.0000000000     0.0000000000     0.0000000000     -0.0211165500    -0.0230428600     0.0003549700
         0.0000000000     0.0000000000     0.0000000000      0.0001314000    -0.0000053500    -0.0000392600
         0.0000000000     0.0000000000     0.0000000000     -0.0002162200     0.0003748300     0.0000641200
         0.0000000000     0.0000000000     0.0000000000      0.0001874700     0.0002342800     0.0000013400
         0.0000000000     0.0000000000     0.0000000000      0.0001794800    -0.0002771300     0.0000258600
         0.0000000000     0.0000000000     0.0000000000      0.0009121500    -0.0010379900     0.0000212000
         0.0000000000     0.0000000000     0.0000000000     -0.0008123300    -0.0000733100     0.0000111100
         0.0000000000     0.0000000000     0.0000000000     -0.0000526200     0.0014661000    -0.0000234700
         0.0000000000     0.0000000000     0.0000000000     -0.0000813500     0.0005565700    -0.0000303200
         0.0000000000     0.0000000000     0.0000000000     -0.0002047200    -0.0009673000     0.0003962500
         0.0000000000     0.0000000000     0.0000000000      0.0005324600    -0.0001054100    -0.0006335000
         0.0000000000     0.0000000000     0.0000000000      0.0084475300     0.0111506500    -0.0000299300
         0.0000000000     0.0000000000     0.0000000000     -0.0084406000     0.0111034500     0.0000781100
         0.0000000000     0.0000000000     0.0000000000      0.0084545000     0.0111816200     0.0000352000
         0.0000000000     0.0000000000     0.0000000000     -0.0084135100     0.0111424900    -0.0000281800
         0.0000000000     0.0000000000     0.0000000000     -0.0017654200     0.0002847300    -0.0060387700
         0.0000000000     0.0000000000     0.0000000000     -0.0053996800    -0.0049030600    -0.0028015200
         0.0000000000     0.0000000000     0.0000000000     -0.0015269400    -0.0001704300     0.0010945100
         0.0000000000     0.0000000000     0.0000000000     -0.0013954900     0.0066789200     0.0045032600
         0.0000000000     0.0000000000     0.0000000000      0.0012694300    -0.0003334000    -0.0015396300
         0.0000000000     0.0000000000     0.0000000000     -0.0003890000     0.0007370900     0.0001567000
         0.0000000000     0.0000000000     0.0000000000      0.0017336900     0.0005639400     0.0055380400
         0.0000000000     0.0000000000     0.0000000000      0.0046252600     0.0041976000     0.0046146200
         0.0000000000     0.0000000000     0.0000000000     -0.0026528400    -0.0045158600     0.0004190400
         0.0000000000     0.0000000000     0.0000000000     -0.0006467600     0.0008424300    -0.0033305500
         0.0000000000     0.0000000000     0.0000000000      0.0013865400     0.0070176600    -0.0048275500
         0.0000000000     0.0000000000     0.0000000000      0.0040605400    -0.0040790400     0.0014222400
         0.0000000000     0.0000000000     0.0000000000      0.0046432300    -0.0046989600    -0.0019021200
         0.0000000000     0.0000000000     0.0000000000     -0.0010349900     0.0154061100     0.0067021800
         0.0000000000     0.0000000000     0.0000000000     -0.0029605100    -0.0065705900    -0.0031341100
