CRYSTAL
PRIMVEC
     8.5428654021    0.0000000000    0.0000000000
     0.0000000000   29.9999975181    0.0000000000
     0.0000000000    0.0000000000   15.4999955853
PRIMCOORD
 48 1
         0.0000000000     0.0000000000     0.0000000000      0.0824645000     0.0109794700    -0.0000079000
         0.0000000000     0.0000000000     0.0000000000     -0.0829330000     0.0111808800     0.0004793000
         0.0000000000     0.0000000000     0.0000000000      0.0199703200    -0.0265179400     0.0000609400
         0.0000000000     0.0000000000     0.0000000000     -0.0192855400    -0.0254603500    -0.0007785200
         0.0000000000     0.0000000000     0.0000000000      0.0001434700    -0.0000237000     0.0000093500
         0.0000000000     0.0000000000     0.0000000000     -0.0001465300    -0.0000250700     0.0000059700
         0.0000000000     0.0000000000     0.0000000000     -0.0001292800    -0.0000175700    -0.0000147500
         0.0000000000     0.0000000000     0.0000000000      0.0000512500    -0.0000183300    -0.0000225100
         0.0000000000     0.0000000000     0.0000000000      0.0002877100    -0.0000727900    -0.0001196800
         0.0000000000     0.0000000000     0.0000000000     -0.0002698400    -0.0000912700    -0.0000197900
         0.0000000000     0.0000000000     0.0000000000     -0.0000766900     0.0002236700    -0.0000364700
         0.0000000000     0.0000000000     0.0000000000     -0.0000737800     0.0001720000    -0.0000968900
         0.0000000000     0.0000000000     0.0000000000     -0.0000033100    -0.0002135100    -0.0004911000
         0.0000000000     0.0000000000     0.0000000000      0.0000282700    -0.0003144200    -0.0000855400
         0.0000000000     0.0000000000     0.0000000000      0.0831988700     0.0112276300     0.0003581400
         0.0000000000     0.0000000000     0.0000000000     -0.0832341100     0.0110262700     0.0000371200
         0.0000000000     0.0000000000     0.0000000000      0.0201320100    -0.0241596500    -0.0005803400
         0.0000000000     0.0000000000     0.0000000000     -0.0201260600    -0.0233941500     0.0002404200
         0.0000000000     0.0000000000     0.0000000000      0.0001366700    -0.0000995900    -0.0000156100
         0.0000000000     0.0000000000     0.0000000000     -0.0001535000     0.0000401500    -0.0000084700
         0.0000000000     0.0000000000     0.0000000000     -0.0000386400     0.0000778300    -0.0000246000
         0.0000000000     0.0000000000     0.0000000000      0.0001206300    -0.0000839500     0.0000257300
         0.0000000000     0.0000000000     0.0000000000      0.0003205100    -0.0003259200     0.0000102800
         0.0000000000     0.0000000000     0.0000000000     -0.0003066900    -0.0000672400    -0.0000328600
         0.0000000000     0.0000000000     0.0000000000     -0.0000006700     0.0005027000    -0.0000542700
         0.0000000000     0.0000000000     0.0000000000      0.0000287900     0.0002413000     0.0000266500
         0.0000000000     0.0000000000     0.0000000000     -0.0002564400    -0.0002067400     0.0004456100
         0.0000000000     0.0000000000     0.0000000000      0.0004188900    -0.0001582400    -0.0006213700
         0.0000000000     0.0000000000     0.0000000000      0.0083853100     0.0111406200    -0.0000099100
         0.0000000000     0.0000000000     0.0000000000     -0.0083876300     0.0111145100     0.0001103200
         0.0000000000     0.0000000000     0.0000000000      0.0083865600     0.0111799400     0.0000712600
         0.0000000000     0.0000000000     0.0000000000     -0.0083546800     0.0111474900    -0.0000097500
         0.0000000000     0.0000000000     0.0000000000     -0.0019646600     0.0002650200    -0.0060144100
         0.0000000000     0.0000000000     0.0000000000     -0.0050748000    -0.0049719600    -0.0024810100
         0.0000000000     0.0000000000     0.0000000000     -0.0008227400    -0.0006987700     0.0008662200
         0.0000000000     0.0000000000     0.0000000000     -0.0013062600     0.0066085300     0.0043914400
         0.0000000000     0.0000000000     0.0000000000      0.0010482300    -0.0004376100    -0.0016972400
         0.0000000000     0.0000000000     0.0000000000     -0.0006696100     0.0002392500     0.0000099400
         0.0000000000     0.0000000000     0.0000000000      0.0019556600     0.0008044700     0.0054063000
         0.0000000000     0.0000000000     0.0000000000      0.0059219700     0.0027743600     0.0027939400
         0.0000000000     0.0000000000     0.0000000000     -0.0025242100    -0.0042391600     0.0007702700
         0.0000000000     0.0000000000     0.0000000000     -0.0003569200     0.0009404000    -0.0031751900
         0.0000000000     0.0000000000     0.0000000000      0.0013942900     0.0068766500    -0.0051296800
         0.0000000000     0.0000000000     0.0000000000      0.0039812900    -0.0040466300     0.0015902900
         0.0000000000     0.0000000000     0.0000000000      0.0032943500    -0.0038075300    -0.0011449500
         0.0000000000     0.0000000000     0.0000000000     -0.0041773300     0.0074925400     0.0035978700
         0.0000000000     0.0000000000     0.0000000000     -0.0076572700     0.0064146400     0.0025338300
         0.0000000000     0.0000000000     0.0000000000      0.0066606400    -0.0032181700    -0.0011683700
