CRYSTAL
PRIMVEC
     8.5428654021    0.0000000000    0.0000000000
     0.0000000000   29.9999975181    0.0000000000
     0.0000000000    0.0000000000   15.4999955853
PRIMCOORD
 46 1
         0.0000000000     0.0000000000     0.0000000000      0.0822382200     0.0110259700    -0.0001331800
         0.0000000000     0.0000000000     0.0000000000     -0.0826930500     0.0113583400     0.0003724200
         0.0000000000     0.0000000000     0.0000000000      0.0200070100    -0.0268405700     0.0001891300
         0.0000000000     0.0000000000     0.0000000000     -0.0195060300    -0.0256168400    -0.0006397000
         0.0000000000     0.0000000000     0.0000000000      0.0001539700    -0.0000587100     0.0000375500
         0.0000000000     0.0000000000     0.0000000000     -0.0001591900    -0.0000610400    -0.0000012200
         0.0000000000     0.0000000000     0.0000000000     -0.0000418200     0.0000658100    -0.0000524600
         0.0000000000     0.0000000000     0.0000000000      0.0000354100    -0.0000689900    -0.0000892600
         0.0000000000     0.0000000000     0.0000000000      0.0000789100    -0.0000229100    -0.0001279400
         0.0000000000     0.0000000000     0.0000000000     -0.0000916200    -0.0000134400     0.0000476600
         0.0000000000     0.0000000000     0.0000000000     -0.0001199000     0.0001660600     0.0000259900
         0.0000000000     0.0000000000     0.0000000000      0.0000491100     0.0000310300     0.0000153500
         0.0000000000     0.0000000000     0.0000000000     -0.0003254000     0.0000088300    -0.0005079900
         0.0000000000     0.0000000000     0.0000000000      0.0002377900     0.0000302600    -0.0000065900
         0.0000000000     0.0000000000     0.0000000000      0.0829360700     0.0113882500     0.0002191600
         0.0000000000     0.0000000000     0.0000000000     -0.0829506700     0.0112962000    -0.0000728500
         0.0000000000     0.0000000000     0.0000000000      0.0202941600    -0.0242407700    -0.0004067300
         0.0000000000     0.0000000000     0.0000000000     -0.0202961100    -0.0234546500     0.0004073300
         0.0000000000     0.0000000000     0.0000000000      0.0001666300    -0.0000660500    -0.0000116100
         0.0000000000     0.0000000000     0.0000000000     -0.0001571200    -0.0000145600     0.0000111700
         0.0000000000     0.0000000000     0.0000000000     -0.0000439600     0.0000246800    -0.0000492200
         0.0000000000     0.0000000000     0.0000000000     -0.0000187100     0.0000151700     0.0000403500
         0.0000000000     0.0000000000     0.0000000000      0.0003002200    -0.0002368500    -0.0000109900
         0.0000000000     0.0000000000     0.0000000000     -0.0003299600    -0.0002494300    -0.0000487900
         0.0000000000     0.0000000000     0.0000000000      0.0000343300     0.0004214900    -0.0001172900
         0.0000000000     0.0000000000     0.0000000000     -0.0000183500     0.0004533300     0.0000257100
         0.0000000000     0.0000000000     0.0000000000     -0.0000746400    -0.0002771800     0.0004486000
         0.0000000000     0.0000000000     0.0000000000      0.0002288700    -0.0005674500    -0.0005506400
         0.0000000000     0.0000000000     0.0000000000      0.0084603900     0.0111577300    -0.0000324800
         0.0000000000     0.0000000000     0.0000000000     -0.0084576200     0.0111282000     0.0000919300
         0.0000000000     0.0000000000     0.0000000000      0.0084522900     0.0112075000     0.0000450100
         0.0000000000     0.0000000000     0.0000000000     -0.0084160800     0.0111689600    -0.0000296800
         0.0000000000     0.0000000000     0.0000000000     -0.0018694400     0.0004449800    -0.0059798500
         0.0000000000     0.0000000000     0.0000000000     -0.0049316700    -0.0047144000    -0.0024440200
         0.0000000000     0.0000000000     0.0000000000     -0.0009148400    -0.0005511100     0.0009230700
         0.0000000000     0.0000000000     0.0000000000     -0.0013503600     0.0065318300     0.0044617500
         0.0000000000     0.0000000000     0.0000000000      0.0014109100    -0.0002687200    -0.0020354900
         0.0000000000     0.0000000000     0.0000000000     -0.0011452300     0.0007851000     0.0002994100
         0.0000000000     0.0000000000     0.0000000000      0.0018734300     0.0006081700     0.0054650200
         0.0000000000     0.0000000000     0.0000000000      0.0039003200     0.0048372600     0.0042011300
         0.0000000000     0.0000000000     0.0000000000     -0.0026841500    -0.0042438800     0.0011829000
         0.0000000000     0.0000000000     0.0000000000     -0.0006175900     0.0009379600    -0.0037581600
         0.0000000000     0.0000000000     0.0000000000      0.0014978500     0.0070100900    -0.0048049300
         0.0000000000     0.0000000000     0.0000000000      0.0038906400    -0.0040561900     0.0014983500
         0.0000000000     0.0000000000     0.0000000000      0.0037626000    -0.0036838100    -0.0013814500
         0.0000000000     0.0000000000     0.0000000000     -0.0027956000     0.0072043400     0.0032835500
