CRYSTAL
PRIMVEC
     8.5428654021    0.0000000000    0.0000000000
     0.0000000000   29.9999975181    0.0000000000
     0.0000000000    0.0000000000   15.4999955853
PRIMCOORD
 48 1
         0.0000000000     0.0000000000     0.0000000000      0.0823064000     0.0111471600    -0.0002480800
         0.0000000000     0.0000000000     0.0000000000     -0.0827509800     0.0112737700     0.0002411700
         0.0000000000     0.0000000000     0.0000000000      0.0202050000    -0.0262579000     0.0003818700
         0.0000000000     0.0000000000     0.0000000000     -0.0195041100    -0.0254849900    -0.0004584400
         0.0000000000     0.0000000000     0.0000000000      0.0001349200    -0.0000131900     0.0000052800
         0.0000000000     0.0000000000     0.0000000000     -0.0001329800    -0.0000179900    -0.0000034900
         0.0000000000     0.0000000000     0.0000000000     -0.0001787600    -0.0000894600     0.0000036900
         0.0000000000     0.0000000000     0.0000000000      0.0000833400    -0.0000043900    -0.0000449800
         0.0000000000     0.0000000000     0.0000000000      0.0002903000    -0.0000476600    -0.0001004900
         0.0000000000     0.0000000000     0.0000000000     -0.0003109500    -0.0000883400    -0.0000259400
         0.0000000000     0.0000000000     0.0000000000     -0.0001003200     0.0001615000    -0.0000010500
         0.0000000000     0.0000000000     0.0000000000     -0.0001005500     0.0002046900    -0.0000917200
         0.0000000000     0.0000000000     0.0000000000     -0.0000571100    -0.0000795100    -0.0005844600
         0.0000000000     0.0000000000     0.0000000000     -0.0000727200    -0.0003341800    -0.0001227000
         0.0000000000     0.0000000000     0.0000000000      0.0830978500     0.0112560600     0.0001461100
         0.0000000000     0.0000000000     0.0000000000     -0.0831609000     0.0110170900    -0.0001826700
         0.0000000000     0.0000000000     0.0000000000      0.0201546100    -0.0244923300    -0.0003316300
         0.0000000000     0.0000000000     0.0000000000     -0.0202734500    -0.0236118900     0.0004546000
         0.0000000000     0.0000000000     0.0000000000      0.0001292700    -0.0000873300    -0.0000067600
         0.0000000000     0.0000000000     0.0000000000     -0.0001658300     0.0000493800     0.0000396800
         0.0000000000     0.0000000000     0.0000000000     -0.0000571500     0.0000862300    -0.0000495900
         0.0000000000     0.0000000000     0.0000000000      0.0001482600    -0.0001229100     0.0000297700
         0.0000000000     0.0000000000     0.0000000000      0.0003574300    -0.0003294000     0.0000392500
         0.0000000000     0.0000000000     0.0000000000     -0.0003626600    -0.0000524100    -0.0000196600
         0.0000000000     0.0000000000     0.0000000000     -0.0000128000     0.0005323500    -0.0000809900
         0.0000000000     0.0000000000     0.0000000000      0.0000173500     0.0002404900    -0.0000311000
         0.0000000000     0.0000000000     0.0000000000     -0.0002139800    -0.0002277500     0.0003941100
         0.0000000000     0.0000000000     0.0000000000      0.0003617100    -0.0002422900    -0.0005799700
         0.0000000000     0.0000000000     0.0000000000      0.0083775800     0.0111469900    -0.0000559600
         0.0000000000     0.0000000000     0.0000000000     -0.0083868600     0.0111127100     0.0000637500
         0.0000000000     0.0000000000     0.0000000000      0.0083892800     0.0111746000     0.0000355200
         0.0000000000     0.0000000000     0.0000000000     -0.0083587400     0.0111421100    -0.0000434500
         0.0000000000     0.0000000000     0.0000000000     -0.0025604500    -0.0001543900    -0.0067047100
         0.0000000000     0.0000000000     0.0000000000     -0.0046566100    -0.0049531300    -0.0027070400
         0.0000000000     0.0000000000     0.0000000000     -0.0007152500    -0.0006084600     0.0006861900
         0.0000000000     0.0000000000     0.0000000000     -0.0016504000     0.0065148000     0.0041571100
         0.0000000000     0.0000000000     0.0000000000      0.0012799800    -0.0005916000    -0.0019876500
         0.0000000000     0.0000000000     0.0000000000     -0.0008012900     0.0005232400     0.0000080800
         0.0000000000     0.0000000000     0.0000000000      0.0021083700     0.0012288100     0.0053500000
         0.0000000000     0.0000000000     0.0000000000      0.0062327100     0.0026957800     0.0025734000
         0.0000000000     0.0000000000     0.0000000000     -0.0027021400    -0.0045309000     0.0002734700
         0.0000000000     0.0000000000     0.0000000000     -0.0001656800     0.0011020900    -0.0034019500
         0.0000000000     0.0000000000     0.0000000000      0.0013085100     0.0064510100    -0.0060168900
         0.0000000000     0.0000000000     0.0000000000      0.0039683600    -0.0040772400     0.0016083200
         0.0000000000     0.0000000000     0.0000000000      0.0032630000    -0.0035549700    -0.0013586400
         0.0000000000     0.0000000000     0.0000000000     -0.0048902100     0.0066504700     0.0042418100
         0.0000000000     0.0000000000     0.0000000000     -0.0023906000     0.0106264500     0.0083217000
         0.0000000000     0.0000000000     0.0000000000      0.0025192400    -0.0062831700    -0.0038148600
