CRYSTAL
PRIMVEC
 9.86398064105027 0.00000000000000 0.00000000000000
 0.00000000000000 29.99999507430976 0.00000000000000
 0.00000000000000 0.00000000000000 15.50000271584972
PRIMCOORD
 46 1
  6     0.71187149000000     2.92123941900000     5.00000000000000     0.00000000000000     0.00000000000000     0.00000000000000
  6     0.71388560700000     4.35795057700000     5.00002121600000    -0.00001503277020     0.00000849431830    -0.00000020786986
  6     1.94486908000000     2.20936792800000     5.00000000000000     0.00000000000000     0.00000000000000     0.00000000000000
  6     1.94864391500000     5.06932384500000     5.00002989300000    -0.00003752050941     0.00001653510236    -0.00000007558904
  6     3.17786667000000     2.92123941900000     5.00000000000000     0.00000000000000     0.00000000000000     0.00000000000000
  6     3.17988536000000     4.36062929900000     5.00001785500000    -0.00002045628377    -0.00000034015068    -0.00000000000000
  6     4.41086426000000     2.20936792800000     5.00000000000000     0.00000000000000     0.00000000000000     0.00000000000000
  6     4.41212032200000     5.07076317600000     5.00002412200000     0.00000651955464    -0.00001054467099     0.00000000000000
  6     5.64386185000000     2.92123941900000     5.00000000000000     0.00000000000000     0.00000000000000     0.00000000000000
  6     5.64285797800000     4.36018566300000     5.00001868800000    -0.00002297906796     0.00000523454098     0.00000002834589
  6     6.87685944000000     2.20936792800000     5.00000000000000     0.00000000000000     0.00000000000000     0.00000000000000
  6     6.87381076000000     5.06733296800000     5.00003148500000     0.00002783566374     0.00004627938934     0.00000036849657
  6     8.10985703000000     2.92123941900000     5.00000000000000     0.00000000000000     0.00000000000000     0.00000000000000
  6     8.10697612400000     4.35668386000000     5.00002318800000    -0.00003971259155     0.00004169680383     0.00000006614041
  6     9.34285462000000     2.20936792800000     5.00000000000000     0.00000000000000     0.00000000000000     0.00000000000000
  6     9.34107900300000     5.05675912000000     5.00003390900000    -0.00000845652378    -0.00000764394160     0.00000019842123
  6     0.70471937800000     7.18813577700000     5.00003535900000    -0.00001452254419     0.00001182023603     0.00000010393493
  6     0.69280399900000     8.60441009500000     5.00000890200000    -0.00001862324957    -0.00001244384560    -0.00000012283219
  6     1.95081302800000     6.50003815600000     5.00003756500000    -0.00003869213952    -0.00002106099609    -0.00000002834589
  6     1.93188816200000     9.30324751700000     4.99998153700000     0.00001366271886    -0.00002460423231    -0.00000038739383
  6     3.18676307200000     7.22173082500000     5.00002797700000    -0.00002345149946    -0.00001838703382     0.00000022676712
  6     3.19306824000000     8.65435234600000     5.00000096700000    -0.00000525343823    -0.00004286843394    -0.00000000944863
  6     4.41435631000000     6.50343247200000     5.00003080500000    -0.00003448749920    -0.00004289677983     0.00000007558904
  6     4.42087954100000     9.40520016100000     4.99998397800000    -0.00000154957531    -0.00002096650979    -0.00000005669178
  6     5.64176485000000     7.21858146200000     5.00002705800000    -0.00002827974935     0.00003310799924     0.00000019842123
  6     5.64422972800000     8.65542845800000     5.00000183000000     0.00002196806456     0.00000873998268     0.00000007558904
  6     6.87234763900000     6.49890178100000     5.00003501200000    -0.00005787285825     0.00004690299892     0.00000022676712
  6     6.88947005200000     9.33220494400000     4.99998763600000     0.00002836478702    -0.00001210369493    -0.00000013228082
  6     8.11067935000000     7.19505480400000     5.00003168800000     0.00003012223218    -0.00002453809190     0.00000023621575
  6     8.11526341200000     8.62183809100000     5.00000784700000     0.00004369991338    -0.00001186747918    -0.00000009448630
  6     9.33808762100000     6.48121975700000     5.00003989200000    -0.00002917736919     0.00000449754784     0.00000030235616
  6     9.33902188500000     9.33329814000000     4.99999313600000     0.00002493493436    -0.00002281844125    -0.00000043463698
  1     1.94450233900000     1.10952337400000     5.00000000000000     0.00000000000000     0.00000000000000     0.00000000000000
  1     4.41049752000000     1.10952337400000     5.00000000000000     0.00000000000000     0.00000000000000     0.00000000000000
  1     6.87649270100000     1.10952337400000     5.00000000000000     0.00000000000000     0.00000000000000     0.00000000000000
  1     9.34248788200000     1.10952337400000     5.00000000000000     0.00000000000000     0.00000000000000     0.00000000000000
 78     2.97681244400000    12.08108950000000     4.99988871300000     0.00002154287622     0.00000533847590    -0.00000126611641
  6     1.77137870000000    10.68040990000000     4.99993022600000     0.00003167180749    -0.00004103539974    -0.00000101100340
  1     8.12484797600000    12.55261775500000     4.99993271400000     0.00002073029404     0.00004859430367    -0.00000079368491
  6     4.49155403100000    10.85764175600000     4.99994745800000    -0.00002706087609    -0.00002750496169    -0.00000048188013
  6     5.71740989800000    11.47806211200000     4.99993942200000    -0.00002009723584     0.00001375720516    -0.00000026456164
  6     6.91907544600000    10.75905412900000     4.99995504800000     0.00004695969070     0.00000650065738    -0.00000028345890
  6     9.33280100600000    10.78586125000000     4.99995231800000     0.00000609436630     0.00002104209883    -0.00000035904794
  1     5.79024617500000    12.57394712100000     4.99992675900000     0.00004874548175    -0.00001132890727    -0.00000017952397
  6     8.12184902500000    11.45612079500000     4.99994481000000    -0.00002109879061     0.00001593983867    -0.00000042518835
  6     0.69902254600000    11.48782377700000     4.99990829200000     0.00000754000668    -0.00002138224951    -0.00000059526368
