CRYSTAL
PRIMVEC
 8.54286592742127 0.00000000000000 0.00000000000000
 0.00000000000000 29.99999936305714 0.00000000000000
 0.00000000000000 0.00000000000000 15.49999653852868
PRIMCOORD
 48 1
  6     1.42374298100000     2.99499287600000     5.00000000000000     0.00000000000000     0.00000000000000     0.00000000000000
  6     2.84748596200000     2.99499287600000     5.00000000000000     0.00000000000000     0.00000000000000     0.00000000000000
  6     0.71187149100000     4.22799046600000     5.00000000000000     0.00000000000000     0.00000000000000     0.00000000000000
  6     3.55935745300000     4.22799046600000     5.00000000000000     0.00000000000000     0.00000000000000     0.00000000000000
  6     1.42426847700000     5.45596811200000     5.00040121900000     0.00000170075339    -0.00000038739383    -0.00000218263351
  6     2.84790244100000     5.45274755100000     5.00042767100000    -0.00003767168749     0.00000566917795    -0.00000384559238
  6     0.71069869200000     6.69398194400000     5.00076743800000    -0.00000266451364    -0.00001987991735     0.00000339205814
  6     3.56376887300000     6.68809689200000     5.00092977100000     0.00001350209215     0.00001080923263    -0.00000263616775
  6     1.42594927900000     7.92843748400000     5.00106424500000     0.00002292237618    -0.00001300131477    -0.00000088817121
  6     2.84913175800000     7.91576331900000     5.00127352600000     0.00000152122942    -0.00001343595174    -0.00000250388693
  6     0.71470879100000     9.16295788800000     5.00054737000000     0.00001873663313    -0.00007281114216    -0.00000664238683
  6     3.56094635400000     9.15199100700000     5.00146761100000    -0.00001120607508     0.00002175074607    -0.00000852266419
  6     1.42592160400000    10.40573585600000     4.99932091500000    -0.00002475541039    -0.00004505106745    -0.00000118107874
  6     2.83671922400000    10.34847960500000     5.00072862300000    -0.00002849706784    -0.00000464872592    -0.00000560303754
  6     5.69497192400000     2.99499287600000     5.00000000000000     0.00000000000000     0.00000000000000     0.00000000000000
  6     7.11871490500000     2.99499287600000     5.00000000000000     0.00000000000000     0.00000000000000     0.00000000000000
  6     4.98310043400000     4.22799046600000     5.00000000000000     0.00000000000000     0.00000000000000     0.00000000000000
  6     7.83058639500000     4.22799046600000     5.00000000000000     0.00000000000000     0.00000000000000     0.00000000000000
  6     5.69686100400000     5.45614387900000     5.00037416900000    -0.00001702643111    -0.00000316529102    -0.00000223932529
  6     7.12141447900000     5.45576494100000     5.00033802100000     0.00000484714715    -0.00001168795521     0.00000154012668
  6     4.98390002600000     6.69055485800000     5.00087301100000    -0.00000922186280     0.00000106769518    -0.00000286293487
  6     7.83552033900000     6.69673577800000     5.00069353200000    -0.00003032065341    -0.00000247554104    -0.00000098265751
  6     5.69954337700000     7.92848134200000     5.00109888000000    -0.00000809747584    -0.00002468926998     0.00000251333556
  6     7.12660721000000     7.93163605700000     5.00087616900000     0.00001811302355    -0.00001354933530    -0.00000258892460
  6     5.00047002300000     9.15401910800000     5.00132392500000    -0.00000469596907     0.00000397787320    -0.00000809747584
  6     7.84017578800000     9.16876490200000     5.00048665400000     0.00000460148277    -0.00002578531105    -0.00000603767452
  6     5.72172014300000    10.38849346600000     5.00070318000000    -0.00000342985266    -0.00003463867728    -0.00000462038003
  6     7.14526664700000    10.41584571700000     4.99986164100000    -0.00001816971533    -0.00000223932529    -0.00000797464365
  1     0.90511317300000     2.02921292800000     5.00000000000000     0.00000000000000     0.00000000000000     0.00000000000000
  1     3.36611577100000     2.02921292800000     5.00000000000000     0.00000000000000     0.00000000000000     0.00000000000000
  1     5.17634211700000     2.02921292800000     5.00000000000000     0.00000000000000     0.00000000000000     0.00000000000000
  1     7.63734470500000     2.02921292800000     5.00000000000000     0.00000000000000     0.00000000000000     0.00000000000000
 78     1.89306655400000    13.32673703600000     4.98812910900000     0.00002929075275    -0.00000467707181     0.00001553354759
  6     7.64135613000000    14.21917549200000     4.99139994300000     0.00003646226286     0.00004735653315    -0.00000315584239
  1     2.90544982800000    14.70456154400000     4.54013703900000    -0.00000863604775     0.00001616660579     0.00003026396163
  6     7.86839603500000    11.67088108800000     4.99739240600000    -0.00002536957133     0.00004484319760    -0.00000716206148
  1     2.90752237700000    14.70995648300000     5.41579495000000    -0.00001354933530    -0.00000113383559     0.00002643726651
  6     5.02122472300000    11.61484165600000     5.00051837000000    -0.00001102655112    -0.00002012558173    -0.00001885946532
  6     3.55043160100000    11.63327752400000     4.99974224300000    -0.00002375385562     0.00000300466431    -0.00001239660245
  1     6.89367267200000    15.02759781900000     4.99069885200000     0.00001093206482     0.00000603767452    -0.00000037794520
  6     5.70805559000000    12.81182322600000     4.99931836400000    -0.00001338870860     0.00001678076674    -0.00001148008535
  1     5.13914534500000    13.74987319500000     4.99950127100000     0.00002521839325    -0.00000553689713    -0.00002306410563
  1     3.20721936500000    12.22712937200000     5.93588434900000     0.00003699138613    -0.00000115273285     0.00002123107143
  6     7.09864811500000    12.89393660900000     4.99648709600000    -0.00000213539036     0.00004689355029    -0.00000887226349
  1     3.20935912600000    12.22253894000000     4.05859149800000     0.00002995215684    -0.00000384559238    -0.00003510166015
  1     0.65560820900000    15.63925133500000     4.98076808700000     0.00002222317757     0.00001539181814     0.00001401231817
  6     0.73853887200000    11.67064089400000     4.99602634200000    -0.00004325582777    -0.00003144504037    -0.00000370386293
  6     0.40310054500000    14.56881247300000     4.98617600900000     0.00004619435167     0.00000531957864     0.00000741717449
