CRYSTAL
PRIMVEC
 8.54286592742127 0.00000000000000 0.00000000000000
 0.00000000000000 29.99999936305714 0.00000000000000
 0.00000000000000 0.00000000000000 15.49999653852868
PRIMCOORD
 45 1
  6     1.42374298100000     2.99499287600000     5.00000000000000     0.00000000000000     0.00000000000000     0.00000000000000
  6     2.84748596200000     2.99499287600000     5.00000000000000     0.00000000000000     0.00000000000000     0.00000000000000
  6     0.71187149100000     4.22799046600000     5.00000000000000     0.00000000000000     0.00000000000000     0.00000000000000
  6     3.55935745300000     4.22799046600000     5.00000000000000     0.00000000000000     0.00000000000000     0.00000000000000
  6     1.42369427100000     5.45350162400000     5.00001316100000     0.00001064860592    -0.00000606602041    -0.00000009448630
  6     2.84674104300000     5.45112445900000     5.00001426300000     0.00001707367426     0.00002913957467    -0.00000000944863
  6     0.70954139500000     6.69291600300000     5.00001552100000    -0.00000229601707     0.00001127221549     0.00000000000000
  6     3.56216144100000     6.68694988500000     5.00002436000000     0.00001678076674    -0.00000628333890    -0.00000033070205
  6     1.42074203000000     7.92580956600000     5.00001999500000    -0.00001414459899    -0.00000526288686     0.00000018897260
  6     2.85103184200000     7.91698348300000     5.00002729000000    -0.00001221707849     0.00001982322557    -0.00000004724315
  6     0.70385139400000     9.15829502000000     5.00000716600000    -0.00002514280421    -0.00001256667779     0.00000040629109
  6     3.56671484900000     9.14332097800000     5.00004260000000    -0.00001964370160     0.00001037459565    -0.00000015117808
  6     1.41936019600000    10.38593956500000     4.99999781400000    -0.00000135115408    -0.00000353378759    -0.00000031180479
  6     2.85406087000000    10.36585651600000     5.00004136700000     0.00000257947597     0.00002210034538    -0.00000067085272
  6     5.69497192400000     2.99499287600000     5.00000000000000     0.00000000000000     0.00000000000000     0.00000000000000
  6     7.11871490500000     2.99499287600000     5.00000000000000     0.00000000000000     0.00000000000000     0.00000000000000
  6     4.98310043400000     4.22799046600000     5.00000000000000     0.00000000000000     0.00000000000000     0.00000000000000
  6     7.83058639500000     4.22799046600000     5.00000000000000     0.00000000000000     0.00000000000000     0.00000000000000
  6     5.69602507500000     5.45408016700000     5.00000899500000     0.00003105764654    -0.00000564083206    -0.00000015117808
  6     7.11951568500000     5.45522927800000     5.00000670000000     0.00000058581505     0.00000203145543     0.00000001889726
  6     4.98201525100000     6.69235724600000     5.00002178700000     0.00000592429096    -0.00002924350960    -0.00000007558904
  6     7.83326264100000     6.69617075300000     5.00001040000000     0.00000442195880     0.00002600262954     0.00000036849657
  6     5.69533867500000     7.92771058200000     5.00002587800000     0.00000184248283    -0.00000279679446    -0.00000012283219
  6     7.12153912900000     7.93194806700000     5.00001215900000    -0.00004428572843     0.00000448809921     0.00000017007534
  6     4.99235679800000     9.15813311600000     5.00004267700000    -0.00002072084541    -0.00002352708850    -0.00000051022602
  6     7.82526197100000     9.16772186400000     5.00000566400000    -0.00003413789990     0.00002007833858     0.00000004724315
  6     5.69492000000000    10.40651333700000     5.00003014000000    -0.00004065745454    -0.00001682800989    -0.00000020786986
  6     7.12781822300000    10.41725748200000     5.00000144700000    -0.00004418179350    -0.00000365661978     0.00000029290753
  1     0.90511317300000     2.02921292800000     5.00000000000000     0.00000000000000     0.00000000000000     0.00000000000000
  1     3.36611577100000     2.02921292800000     5.00000000000000     0.00000000000000     0.00000000000000     0.00000000000000
  1     5.17634211700000     2.02921292800000     5.00000000000000     0.00000000000000     0.00000000000000     0.00000000000000
  1     7.63734470500000     2.02921292800000     5.00000000000000     0.00000000000000     0.00000000000000     0.00000000000000
  1     7.60329913200000    13.81551332200000     4.99991783000000    -0.00000943918129    -0.00001242494834     0.00000039684246
  6     5.67060920000000    12.86068191400000     5.00000522000000    -0.00004052517372    -0.00000080313354    -0.00000024566438
  6     0.75980213100000    11.66132447400000     4.99992586600000    -0.00002468926998    -0.00002182633511    -0.00000013228082
  1     4.21878153900000    14.19275116100000     5.90207207100000    -0.00002347984535     0.00002800573908    -0.00001010058538
  1     0.92891544700000    14.27831814300000     4.99924009500000    -0.00005126826594    -0.00003133165681     0.00000336371225
  6     7.85254014000000    11.67395736300000     4.99995725900000    -0.00004526838594     0.00000216373625     0.00000034959931
  6     4.87234583000000    14.13955049000000     5.00001292500000     0.00000011338356     0.00001667683181    -0.00000059526368
  1     4.21917162000000    14.19302687600000     4.09769549900000    -0.00002442470834     0.00002645616377     0.00000921241417
  6     7.05814584900000    12.86461123600000     4.99995990100000    -0.00001526898595    -0.00001563748252    -0.00000010393493
  6     3.50297887800000    11.62626451700000     5.00006824100000    -0.00000719985600     0.00002814746853    -0.00000094486299
  6     4.93829724000000    11.62824904600000     5.00003381100000     0.00000848486967     0.00000649120875     0.00000000944863
  1     5.51082339900000    15.03879978500000     5.00028734800000     0.00000363772252     0.00000875887993    -0.00000198421228
 78     2.07593598900000    13.11219754700000     4.99979393100000    -0.00001911457833    -0.00000991161279     0.00000099210614
