CRYSTAL
PRIMVEC
     9.8639806455    0.0000000000    0.0000000000
     0.0000000000   29.9999950877    0.0000000000
     0.0000000000    0.0000000000   15.5000027228
PRIMCOORD
 49 1
         0.0000000000     0.0000000000     0.0000000000     -0.0039623800    -0.0462425000    -0.0002531000
         0.0000000000     0.0000000000     0.0000000000      0.0000144900    -0.0004582300    -0.0000048400
         0.0000000000     0.0000000000     0.0000000000      0.0011182800     0.0336927400    -0.0000560700
         0.0000000000     0.0000000000     0.0000000000      0.0000412500     0.0001575800     0.0000293800
         0.0000000000     0.0000000000     0.0000000000     -0.0010254100    -0.0489693900     0.0011153000
         0.0000000000     0.0000000000     0.0000000000     -0.0000196800    -0.0004294400    -0.0000151800
         0.0000000000     0.0000000000     0.0000000000     -0.0016874100     0.0341134600    -0.0002210600
         0.0000000000     0.0000000000     0.0000000000      0.0000242600     0.0001947200     0.0000493600
         0.0000000000     0.0000000000     0.0000000000      0.0045302000    -0.0469999600     0.0005083200
         0.0000000000     0.0000000000     0.0000000000      0.0000006700    -0.0004368200     0.0000001500
         0.0000000000     0.0000000000     0.0000000000     -0.0016443100     0.0339887400     0.0001276800
         0.0000000000     0.0000000000     0.0000000000     -0.0000505600     0.0001414600    -0.0000237200
         0.0000000000     0.0000000000     0.0000000000      0.0003817800    -0.0439156500    -0.0013511000
         0.0000000000     0.0000000000     0.0000000000      0.0000271000    -0.0004606100     0.0000176500
         0.0000000000     0.0000000000     0.0000000000      0.0019459200     0.0338837900     0.0001297100
         0.0000000000     0.0000000000     0.0000000000      0.0000147600     0.0001149400    -0.0000415800
         0.0000000000     0.0000000000     0.0000000000      0.0000643200     0.0000938800     0.0000516400
         0.0000000000     0.0000000000     0.0000000000     -0.0001520100    -0.0000437400     0.0001139200
         0.0000000000     0.0000000000     0.0000000000      0.0000123900    -0.0002572500     0.0000047600
         0.0000000000     0.0000000000     0.0000000000      0.0000600700     0.0000680000     0.0001925300
         0.0000000000     0.0000000000     0.0000000000     -0.0000084600     0.0000439000     0.0000985800
         0.0000000000     0.0000000000     0.0000000000     -0.0000894400     0.0001960600     0.0000189100
         0.0000000000     0.0000000000     0.0000000000      0.0000511700    -0.0001821700    -0.0000179500
         0.0000000000     0.0000000000     0.0000000000      0.0000345400     0.0000926400     0.0002404700
         0.0000000000     0.0000000000     0.0000000000      0.0000513700     0.0000446400     0.0001150500
         0.0000000000     0.0000000000     0.0000000000      0.0000350100     0.0001243500     0.0000376000
         0.0000000000     0.0000000000     0.0000000000     -0.0000268300    -0.0001502100     0.0000346600
         0.0000000000     0.0000000000     0.0000000000     -0.0004465300    -0.0003071200     0.0001297000
         0.0000000000     0.0000000000     0.0000000000     -0.0000373500     0.0000675800    -0.0000831300
         0.0000000000     0.0000000000     0.0000000000      0.0001704500    -0.0002439000     0.0003414800
         0.0000000000     0.0000000000     0.0000000000      0.0000259500    -0.0001543800     0.0000345600
         0.0000000000     0.0000000000     0.0000000000      0.0008145400    -0.0004470600     0.0000303500
         0.0000000000     0.0000000000     0.0000000000     -0.0000486100     0.0099723400    -0.0000890600
         0.0000000000     0.0000000000     0.0000000000      0.0001027100     0.0100251600    -0.0001912600
         0.0000000000     0.0000000000     0.0000000000      0.0001769100     0.0099166700     0.0001033700
         0.0000000000     0.0000000000     0.0000000000      0.0000553600     0.0099104100     0.0001769500
         0.0000000000     0.0000000000     0.0000000000     -0.0001131300    -0.0049725800    -0.0000119000
         0.0000000000     0.0000000000     0.0000000000     -0.0043923700    -0.0014035300     0.0018692100
         0.0000000000     0.0000000000     0.0000000000     -0.0001222200     0.0019597900     0.0003698000
         0.0000000000     0.0000000000     0.0000000000      0.0009316800     0.0048694000     0.0010186100
         0.0000000000     0.0000000000     0.0000000000     -0.0005816100     0.0075774700    -0.0043741700
         0.0000000000     0.0000000000     0.0000000000      0.0036867300    -0.0005149300     0.0005973900
         0.0000000000     0.0000000000     0.0000000000     -0.0000064300     0.0018510500     0.0006865800
         0.0000000000     0.0000000000     0.0000000000      0.0000204000    -0.0050451300     0.0001891900
         0.0000000000     0.0000000000     0.0000000000     -0.0003341500     0.0051781200     0.0007184900
         0.0000000000     0.0000000000     0.0000000000     -0.0000047000     0.0057557000     0.0005748300
         0.0000000000     0.0000000000     0.0000000000     -0.0002151800    -0.0057623300     0.0007343200
         0.0000000000     0.0000000000     0.0000000000     -0.0020187100    -0.0004525100    -0.0001979900
         0.0000000000     0.0000000000     0.0000000000      0.0025951500     0.0038148700    -0.0035283900
