CRYSTAL
PRIMVEC
     9.8639806455    0.0000000000    0.0000000000
     0.0000000000   29.9999950877    0.0000000000
     0.0000000000    0.0000000000   15.5000027228
PRIMCOORD
 50 1
         0.0000000000     0.0000000000     0.0000000000     -0.0002700100    -0.0462828700     0.0001910300
         0.0000000000     0.0000000000     0.0000000000     -0.0000801900    -0.0003002100    -0.0000130300
         0.0000000000     0.0000000000     0.0000000000     -0.0014109900     0.0338366300    -0.0001890300
         0.0000000000     0.0000000000     0.0000000000      0.0000025500     0.0000969500     0.0000213500
         0.0000000000     0.0000000000     0.0000000000      0.0000520400    -0.0474031300     0.0011908100
         0.0000000000     0.0000000000     0.0000000000      0.0000056600    -0.0003485800    -0.0000253400
         0.0000000000     0.0000000000     0.0000000000      0.0010115800     0.0338853300    -0.0002016700
         0.0000000000     0.0000000000     0.0000000000      0.0000077300     0.0000826500    -0.0000000700
         0.0000000000     0.0000000000     0.0000000000      0.0001466300    -0.0462561400     0.0002395600
         0.0000000000     0.0000000000     0.0000000000      0.0001000500    -0.0003160800    -0.0000103500
         0.0000000000     0.0000000000     0.0000000000      0.0007000200     0.0332971900     0.0000515200
         0.0000000000     0.0000000000     0.0000000000      0.0000305500    -0.0001354600    -0.0000216200
         0.0000000000     0.0000000000     0.0000000000     -0.0002080300    -0.0450615700    -0.0010020000
         0.0000000000     0.0000000000     0.0000000000      0.0000149400    -0.0003335700    -0.0000184600
         0.0000000000     0.0000000000     0.0000000000     -0.0005732400     0.0332476100     0.0000477000
         0.0000000000     0.0000000000     0.0000000000     -0.0000115100    -0.0001217900    -0.0000302900
         0.0000000000     0.0000000000     0.0000000000     -0.0000476500    -0.0000865400     0.0000651500
         0.0000000000     0.0000000000     0.0000000000     -0.0002356200     0.0002839800     0.0000468100
         0.0000000000     0.0000000000     0.0000000000      0.0001226900    -0.0000559900    -0.0000297900
         0.0000000000     0.0000000000     0.0000000000      0.0000557600     0.0001452700     0.0002014400
         0.0000000000     0.0000000000     0.0000000000      0.0000189300    -0.0002265600     0.0000809300
         0.0000000000     0.0000000000     0.0000000000     -0.0000198900     0.0002789900     0.0000647300
         0.0000000000     0.0000000000     0.0000000000     -0.0001070500    -0.0000447800    -0.0000272200
         0.0000000000     0.0000000000     0.0000000000     -0.0000345100     0.0001214900     0.0002595900
         0.0000000000     0.0000000000     0.0000000000      0.0000777500    -0.0001301900     0.0000698600
         0.0000000000     0.0000000000     0.0000000000      0.0002281600     0.0002661000     0.0000494400
         0.0000000000     0.0000000000     0.0000000000     -0.0001341300    -0.0000029800    -0.0000012600
         0.0000000000     0.0000000000     0.0000000000     -0.0001745500    -0.0009048100     0.0000242900
         0.0000000000     0.0000000000     0.0000000000      0.0000002200    -0.0000393100    -0.0000853700
         0.0000000000     0.0000000000     0.0000000000      0.0000049200    -0.0000006800     0.0004066100
         0.0000000000     0.0000000000     0.0000000000      0.0001274000     0.0000265100     0.0000175400
         0.0000000000     0.0000000000     0.0000000000      0.0002103800    -0.0009212400     0.0001017100
         0.0000000000     0.0000000000     0.0000000000     -0.0000319100     0.0100240000    -0.0001636200
         0.0000000000     0.0000000000     0.0000000000      0.0001593300     0.0100301600    -0.0001724700
         0.0000000000     0.0000000000     0.0000000000      0.0001617400     0.0099907600     0.0000829200
         0.0000000000     0.0000000000     0.0000000000     -0.0000211700     0.0099889400     0.0000870100
         0.0000000000     0.0000000000     0.0000000000      0.0000199800    -0.0049936500     0.0003962400
         0.0000000000     0.0000000000     0.0000000000     -0.0036431200    -0.0006689600     0.0007954100
         0.0000000000     0.0000000000     0.0000000000     -0.0001027400     0.0020331100     0.0003305600
         0.0000000000     0.0000000000     0.0000000000      0.0008855700     0.0058226100     0.0008238300
         0.0000000000     0.0000000000     0.0000000000     -0.0010732600     0.0002258200     0.0042023600
         0.0000000000     0.0000000000     0.0000000000      0.0035952500    -0.0005757400     0.0005329500
         0.0000000000     0.0000000000     0.0000000000     -0.0000278300     0.0019868100     0.0003167700
         0.0000000000     0.0000000000     0.0000000000      0.0000823800    -0.0049774600     0.0000180100
         0.0000000000     0.0000000000     0.0000000000     -0.0007252100     0.0058589100     0.0007630200
         0.0000000000     0.0000000000     0.0000000000      0.0000580000     0.0060009400     0.0007074000
         0.0000000000     0.0000000000     0.0000000000      0.0000240600    -0.0050409600     0.0004696100
         0.0000000000     0.0000000000     0.0000000000     -0.0059117100     0.0036234300    -0.0076463900
         0.0000000000     0.0000000000     0.0000000000      0.0005162400     0.0069669900    -0.0060167000
         0.0000000000     0.0000000000     0.0000000000      0.0064237900    -0.0028919100     0.0029985300
