CRYSTAL
PRIMVEC
 9.86398064105027 0.00000000000000 0.00000000000000
 0.00000000000000 29.99999507430976 0.00000000000000
 0.00000000000000 0.00000000000000 15.50000271584972
PRIMCOORD
 53 1
  6     0.71187149000000     2.92123941900000     5.00000000000000     0.00000000000000     0.00000000000000     0.00000000000000
  6     0.71204542900000     4.35950760900000     4.99934967300000    -0.00000338260951     0.00000171020202    -0.00001708312289
  6     1.94486908000000     2.20936792800000     5.00000000000000     0.00000000000000     0.00000000000000     0.00000000000000
  6     1.94493629200000     5.06580930800000     4.99925614900000    -0.00000505501701    -0.00000591484233    -0.00001518394828
  6     3.17786667000000     2.92123941900000     5.00000000000000     0.00000000000000     0.00000000000000     0.00000000000000
  6     3.17760139200000     4.35983035100000     4.99940300800000     0.00000577311288     0.00000329757184    -0.00001609101675
  6     4.41086426000000     2.20936792800000     5.00000000000000     0.00000000000000     0.00000000000000     0.00000000000000
  6     4.41078454300000     5.06626926200000     4.99748158700000    -0.00000388338690     0.00000619830123    -0.00000803133543
  6     5.64386185000000     2.92123941900000     5.00000000000000     0.00000000000000     0.00000000000000     0.00000000000000
  6     5.64361310900000     4.35979604900000     4.99821098900000    -0.00000065195546    -0.00000050077739    -0.00001460758185
  6     6.87685944000000     2.20936792800000     5.00000000000000     0.00000000000000     0.00000000000000     0.00000000000000
  6     6.87658488900000     5.06541552700000     4.99618053500000     0.00000358103074     0.00000080313354    -0.00000707702381
  6     8.10985703000000     2.92123941900000     5.00000000000000     0.00000000000000     0.00000000000000     0.00000000000000
  6     8.10996966500000     4.35948644300000     4.99809080700000    -0.00000736048271    -0.00000121887326    -0.00001049742784
  6     9.34285462000000     2.20936792800000     5.00000000000000     0.00000000000000     0.00000000000000     0.00000000000000
  6     9.34279817600000     5.06511615200000     4.99722525700000     0.00000070864724    -0.00000266451364    -0.00000441251017
  6     0.71187133400000     7.20559550400000     4.99340164700000     0.00000995885593    -0.00000738882860    -0.00002017282488
  6     0.71178581000000     8.63745665300000     4.99224827200000     0.00000542351357    -0.00000892895527    -0.00001211314356
  6     1.94497361400000     6.49827980600000     4.99695262200000    -0.00000068974998     0.00000081258217    -0.00001061081140
  6     1.94322149800000     9.33974581100000     5.01157902600000     0.00000261727049     0.00000500777386     0.00000599988000
  6     3.17723250100000     7.20757626200000     4.99329984400000     0.00000120942463    -0.00000125666778    -0.00001622329757
  6     3.17639154700000     8.63937883700000     4.99657039000000    -0.00000482824989     0.00000164406161     0.00000542351357
  6     4.41086388000000     6.49812225900000     4.99364053700000     0.00000055746917     0.00000052912328    -0.00002149563307
  6     4.41252657100000     9.34648417800000     4.99429624200000     0.00000458258551    -0.00000993995867     0.00001976653379
  6     5.64348939800000     7.20515136400000     4.98937646700000     0.00000920296554     0.00000999665045     0.00000629278753
  6     5.64392938200000     8.63760021800000     4.98183884500000    -0.00000561248617     0.00000542351357     0.00003363712251
  6     6.87642657700000     6.49695257800000     4.99136247000000     0.00000077478765    -0.00000256057871     0.00000562193480
  6     6.87607040300000     9.34225022300000     4.96425408700000     0.00000789905461     0.00000405346224     0.00001904843792
  6     8.11009078600000     7.20427563100000     4.98914938900000    -0.00000038739383    -0.00000325032869    -0.00000197476365
  6     8.11066013100000     8.63594093100000     4.97587428200000     0.00000573531836     0.00000534792453     0.00001531622910
  6     9.34276748800000     6.49695073400000     4.99329531300000    -0.00000353378759    -0.00000275899994    -0.00000769118475
  6     9.34008965000000     9.34211623100000     4.97482651000000     0.00000727544504    -0.00000038739383     0.00000727544504
  1     1.94450233900000     1.10952337400000     5.00000000000000     0.00000000000000     0.00000000000000     0.00000000000000
  1     4.41049752000000     1.10952337400000     5.00000000000000     0.00000000000000     0.00000000000000     0.00000000000000
  1     6.87649270100000     1.10952337400000     5.00000000000000     0.00000000000000     0.00000000000000     0.00000000000000
  1     9.34248788200000     1.10952337400000     5.00000000000000     0.00000000000000     0.00000000000000     0.00000000000000
  6     1.93818748900000    10.79205971100000     5.04008214600000     0.00000005669178     0.00000788960598     0.00000371331156
  1     1.55365116400000    13.01745656600000     7.26845054000000    -0.00004524004005     0.00000902344157     0.00000416684579
  1     2.56484305200000    11.60170349800000     8.86245310300000     0.00000460148277    -0.00000408180813    -0.00001428632844
  6     3.18099677000000    11.49268783200000     5.06572436200000    -0.00000788015735    -0.00002364992069     0.00001098875660
  6     5.64211975200000    11.46479399000000     4.94087928400000    -0.00000000000000    -0.00001224542438     0.00000741717449
 78     2.49238769400000    11.50332552000000     7.29532676900000     0.00000259837323    -0.00001799964000     0.00002525618777
  6     8.10405613600000    11.46562089900000     4.90879517300000     0.00001401231817     0.00000205035269     0.00001126276686
  6     4.42348121100000    10.78461679800000     4.99754236200000    -0.00000428022935    -0.00001040294154     0.00000912737650
  6     6.87596715500000    10.78205666600000     4.93109253800000     0.00000017952397     0.00000194641776     0.00001990826324
  1     3.19063458000000    12.56343924700000     4.82443287800000    -0.00000005669178     0.00001906733518    -0.00002266726318
  1     0.69508158900000    12.56818567800000     4.89032656200000    -0.00000279679446     0.00001799964000     0.00000048188013
  1     5.64215936800000    12.56273989200000     4.93544946600000     0.00000995885593    -0.00002485934532    -0.00002273340359
  6     9.33451500100000    10.78414961600000     4.94087359000000     0.00000218263351    -0.00000188027735    -0.00001433357159
  1     2.98446501700000    10.03713003000000     7.59997232800000     0.00000062360957     0.00000022676712    -0.00002030510570
  1     2.35496925700000    13.27406232500000     7.10543177300000     0.00003942913265     0.00002526563640    -0.00000466762318
  6     0.69656133700000    11.47259079000000     4.95221664300000     0.00000667073272     0.00000875887993     0.00000502667112
  1     8.10309014100000    12.56329256400000     4.88558567300000     0.00000041573972     0.00001063915729    -0.00001851931464
