CRYSTAL
PRIMVEC
 9.86398064105027 0.00000000000000 0.00000000000000
 0.00000000000000 29.99999507430976 0.00000000000000
 0.00000000000000 0.00000000000000 15.50000271584972
PRIMCOORD
 43 1
  6     0.71187149000000     2.92123941900000     5.00000000000000     0.00000000000000     0.00000000000000     0.00000000000000
  6     0.70908397100000     4.36486411000000     5.00001051000000     0.00001148008535    -0.00000322198280    -0.00000029290753
  6     1.94486908000000     2.20936792800000     5.00000000000000     0.00000000000000     0.00000000000000     0.00000000000000
  6     1.94127252400000     5.07092174700000     5.00001823200000    -0.00006217198487     0.00003706697517    -0.00000006614041
  6     3.17786667000000     2.92123941900000     5.00000000000000     0.00000000000000     0.00000000000000     0.00000000000000
  6     3.17419929500000     4.35798231500000     5.00001270800000    -0.00005613431035     0.00002281844125    -0.00000001889726
  6     4.41086426000000     2.20936792800000     5.00000000000000     0.00000000000000     0.00000000000000     0.00000000000000
  6     4.40682739100000     5.05522824100000     5.00002070200000    -0.00002137280088    -0.00000627389027     0.00000014172945
  6     5.64386185000000     2.92123941900000     5.00000000000000     0.00000000000000     0.00000000000000     0.00000000000000
  6     5.64642914700000     4.35493026400000     5.00001374300000    -0.00001875553039     0.00000697308888     0.00000008503767
  6     6.87685944000000     2.20936792800000     5.00000000000000     0.00000000000000     0.00000000000000     0.00000000000000
  6     6.88280736600000     5.05746150400000     5.00001574800000     0.00001677131811    -0.00001087537304     0.00000008503767
  6     8.10985703000000     2.92123941900000     5.00000000000000     0.00000000000000     0.00000000000000     0.00000000000000
  6     8.11380594800000     4.35909331700000     5.00001043200000     0.00003406231086     0.00001314304422    -0.00000004724315
  6     9.34285462000000     2.20936792800000     5.00000000000000     0.00000000000000     0.00000000000000     0.00000000000000
  6     9.34461677800000     5.07785327900000     5.00001376400000     0.00001776342425     0.00002139169814    -0.00000020786986
  6     0.71279059000000     7.22827807700000     5.00000237400000    -0.00001260447231     0.00003519614645    -0.00000009448630
  6     0.71836913300000     8.67315335900000     4.99997955500000    -0.00001473041404     0.00002008778721    -0.00000026456164
  6     1.94168463700000     6.50362662700000     5.00001942900000    -0.00003658509505     0.00001714926330     0.00000004724315
  6     1.97588300800000     9.36796090900000     4.99998112100000     0.00001824530437    -0.00001723430097    -0.00000030235616
  6     3.18029802300000     7.19691329600000     5.00002098900000    -0.00001257612642    -0.00000941083540    -0.00000000000000
  6     3.19325826400000     8.63200110500000     5.00000444500000     0.00002592704050    -0.00004101650248    -0.00000015117808
  6     4.40426241500000     6.47977686000000     5.00002486500000    -0.00000334481499    -0.00001036514702     0.00000020786986
  6     4.42692361100000     9.30495032300000     5.00000154700000    -0.00001225487301     0.00001356823256    -0.00000015117808
  6     5.64819397900000     7.17001262000000     5.00001577000000    -0.00002037124611    -0.00001238715382     0.00000017007534
  6     5.64530970400000     8.57783876600000     5.00000353300000     0.00000373220882     0.00002080588308     0.00000003779452
  6     6.88557950700000     6.48605934600000     5.00001408600000    -0.00000599043137    -0.00000049132876     0.00000013228082
  6     6.83503739100000     9.31621757000000     4.99998547900000    -0.00000400621909    -0.00002633333158     0.00000009448630
  6     8.10159916900000     7.22268384700000     4.99999679800000     0.00000462982866    -0.00004711086878     0.00000002834589
  6     8.08462562400000     8.66832658400000     4.99997554700000    -0.00001256667779    -0.00005160841662    -0.00000003779452
  6     9.34492556900000     6.51787675400000     5.00000496800000     0.00002617270488    -0.00000256057871     0.00000004724315
  6     9.32984726200000     9.37389116200000     4.99995820700000    -0.00000291962664    -0.00002443415697     0.00000004724315
  1     1.94450233900000     1.10952337400000     5.00000000000000     0.00000000000000     0.00000000000000     0.00000000000000
  1     4.41049752000000     1.10952337400000     5.00000000000000     0.00000000000000     0.00000000000000     0.00000000000000
  1     6.87649270100000     1.10952337400000     5.00000000000000     0.00000000000000     0.00000000000000     0.00000000000000
  1     9.34248788200000     1.10952337400000     5.00000000000000     0.00000000000000     0.00000000000000     0.00000000000000
  6     2.09761152100000    10.82513783000000     4.99995495600000    -0.00001738547905    -0.00000462982866    -0.00000046298287
  1     3.39122480500000    12.57359513400000     4.99995112500000     0.00005873268358     0.00000964705115    -0.00000058581505
  6     3.37665833400000    11.47779732200000     4.99995946700000     0.00000689749984     0.00000839038337    -0.00000042518835
  6     0.77863644000000    11.28429914800000     4.99993072400000    -0.00001573196882     0.00004757385164    -0.00000040629109
  6     4.54506280300000    10.72294910500000     4.99998251700000     0.00001960590708     0.00001411625310    -0.00000035904794
 78     6.48568238100000    11.22862204700000     4.99998268300000     0.00000521564372     0.00004834863930    -0.00000042518835
  6     9.48026475000000    10.79721352800000     4.99993828000000     0.00001347374626    -0.00003150173215    -0.00000016062671
