CRYSTAL
PRIMVEC
 8.54286592742127 0.00000000000000 0.00000000000000
 0.00000000000000 29.99999936305714 0.00000000000000
 0.00000000000000 0.00000000000000 15.49999653852868
PRIMCOORD
 44 1
  6     1.42374298100000     2.99499287600000     5.00000000000000     0.00000000000000     0.00000000000000     0.00000000000000
  6     2.84748596200000     2.99499287600000     5.00000000000000     0.00000000000000     0.00000000000000     0.00000000000000
  6     0.71187149100000     4.22799046600000     5.00000000000000     0.00000000000000     0.00000000000000     0.00000000000000
  6     3.55935745300000     4.22799046600000     5.00000000000000     0.00000000000000     0.00000000000000     0.00000000000000
  6     1.42396032900000     5.45293481600000     4.99979836500000     0.00001069584907    -0.00000690694847     0.00000339205814
  6     2.84697393600000     5.45260103900000     4.99979083000000    -0.00001540126677     0.00001011948264     0.00000371331156
  6     0.70953979800000     6.69131765900000     4.99975770900000    -0.00003070804724     0.00000534792453     0.00000556524302
  6     3.56148693400000     6.69035423300000     4.99970364300000     0.00002317748919     0.00002142004403     0.00000553689713
  6     1.42019638700000     7.92447359500000     5.00000339000000     0.00000351489033    -0.00002515225284     0.00000918406828
  6     2.85088316100000     7.92342867900000     4.99992123800000     0.00001732878727    -0.00001152732850     0.00001107379427
  6     0.70464378800000     9.15467864800000     5.00095080200000     0.00003554574576    -0.00001869883861     0.00000869273953
  6     3.56579217400000     9.15287642700000     5.00052962900000    -0.00001903898929     0.00002151453033     0.00001148953398
  6     1.41895351600000    10.38351388600000     5.00337519900000    -0.00002796794456     0.00000277789720     0.00000755890394
  6     2.85433809300000    10.38293282400000     5.00273095200000    -0.00000764394160    -0.00000390228416     0.00000752110942
  6     5.69497192400000     2.99499287600000     5.00000000000000     0.00000000000000     0.00000000000000     0.00000000000000
  6     7.11871490500000     2.99499287600000     5.00000000000000     0.00000000000000     0.00000000000000     0.00000000000000
  6     4.98310043400000     4.22799046600000     5.00000000000000     0.00000000000000     0.00000000000000     0.00000000000000
  6     7.83058639500000     4.22799046600000     5.00000000000000     0.00000000000000     0.00000000000000     0.00000000000000
  6     5.69523741300000     5.45404571200000     4.99984945000000    -0.00000648176012    -0.00000460148277     0.00000762504434
  6     7.11880753500000     5.45416939400000     4.99985678600000    -0.00002994270821    -0.00000996830456     0.00000795574639
  6     4.98073747100000     6.69283291500000     4.99979020100000     0.00000115273285     0.00003033955067     0.00000491328756
  6     7.83311678800000     6.69359329500000     4.99985433800000    -0.00000691639710    -0.00000680301354     0.00000714316422
  6     5.69374982800000     7.92755392400000     5.00007237300000     0.00001802798589     0.00002166570840     0.00000176689379
  6     7.12018815800000     7.92804811200000     5.00017675200000     0.00001086592441     0.00001447530104     0.00000260782186
  6     4.98974660000000     9.15934925100000     5.00045980800000    -0.00001782956466     0.00000317473965     0.00000649120875
  6     7.82434198500000     9.16094868500000     5.00084842500000     0.00004358652982     0.00000391173279     0.00000478100674
  6     5.69041344100000    10.40558070100000     5.00064470200000     0.00000454479099    -0.00001173519836     0.00000557469165
  6     7.12389868800000    10.40720410900000     5.00100128100000     0.00001516505102     0.00000002834589     0.00000543296220
  1     0.90511317300000     2.02921292800000     5.00000000000000     0.00000000000000     0.00000000000000     0.00000000000000
  1     3.36611577100000     2.02921292800000     5.00000000000000     0.00000000000000     0.00000000000000     0.00000000000000
  1     5.17634211700000     2.02921292800000     5.00000000000000     0.00000000000000     0.00000000000000     0.00000000000000
  1     7.63734470500000     2.02921292800000     5.00000000000000     0.00000000000000     0.00000000000000     0.00000000000000
  6     7.86824607700000    11.64592097400000     5.00215064400000    -0.00002617270488     0.00001603432497    -0.00000450699647
 78     2.07133034600000    13.18903194600000     5.02413990100000     0.00001499497568     0.00001568472567    -0.00000290072939
  1     7.62973314300000    13.79069583800000     4.99477270600000     0.00004308575243     0.00001137615042    -0.00001990826324
  6     5.71481915400000    12.83260398100000     4.99640609600000     0.00000194641776    -0.00003458198550    -0.00001300131477
  1     2.65515598900000    14.79518063100000     5.04752696800000    -0.00004092201618     0.00000304245883     0.00001833979067
  6     7.09003958000000    12.83957318600000     4.99735647400000     0.00000454479099     0.00003007498903    -0.00001199976000
  6     0.76722060900000    11.65311870500000     5.00663554600000    -0.00002458533505    -0.00000024566438    -0.00000326922595
  1     0.83405345900000    14.23834781900000     5.04719351700000    -0.00003513945467     0.00001329422230     0.00000565972932
  1     3.40464319100000    14.29075460800000     5.04486198200000     0.00000315584239     0.00005134385498     0.00001009113675
  6     3.49831379600000    11.65387518500000     5.00439327600000     0.00000599043137    -0.00002751441032    -0.00000632113342
  1     5.19006092000000    13.79278296000000     4.99123442000000     0.00004416289624     0.00000311804787    -0.00002332866727
  6     4.93868590300000    11.63864122300000     5.00080806900000     0.00002969704384    -0.00000213539036    -0.00000531957864
