CRYSTAL
PRIMVEC
     8.5428654021    0.0000000000    0.0000000000
     0.0000000000   29.9999975181    0.0000000000
     0.0000000000    0.0000000000   15.4999955853
PRIMCOORD
 49 1
         0.0000000000     0.0000000000     0.0000000000      0.0839053500     0.0100218600     0.0001075400
         0.0000000000     0.0000000000     0.0000000000     -0.0837109900     0.0103746600    -0.0000219700
         0.0000000000     0.0000000000     0.0000000000      0.0203471500    -0.0236880200    -0.0005501000
         0.0000000000     0.0000000000     0.0000000000     -0.0205168100    -0.0234780700     0.0001803300
         0.0000000000     0.0000000000     0.0000000000      0.0002404500     0.0000921400     0.0000109500
         0.0000000000     0.0000000000     0.0000000000     -0.0001332200    -0.0000787100    -0.0000135400
         0.0000000000     0.0000000000     0.0000000000      0.0001307400     0.0000740800     0.0000077300
         0.0000000000     0.0000000000     0.0000000000     -0.0002875200     0.0001943900    -0.0000059300
         0.0000000000     0.0000000000     0.0000000000      0.0001502400    -0.0001835300     0.0000434200
         0.0000000000     0.0000000000     0.0000000000     -0.0002106900    -0.0006479600     0.0000725200
         0.0000000000     0.0000000000     0.0000000000     -0.0001956800     0.0001306500    -0.0000591700
         0.0000000000     0.0000000000     0.0000000000      0.0002351900     0.0004656600     0.0001106200
         0.0000000000     0.0000000000     0.0000000000     -0.0004431700     0.0005396500     0.0003019800
         0.0000000000     0.0000000000     0.0000000000      0.0002098500     0.0002760300    -0.0000429400
         0.0000000000     0.0000000000     0.0000000000      0.0841017500     0.0103722100    -0.0001249200
         0.0000000000     0.0000000000     0.0000000000     -0.0834438500     0.0098902800     0.0000801100
         0.0000000000     0.0000000000     0.0000000000      0.0202837100    -0.0232121500     0.0001883700
         0.0000000000     0.0000000000     0.0000000000     -0.0210180700    -0.0255367500     0.0001718600
         0.0000000000     0.0000000000     0.0000000000      0.0002401600    -0.0000614400     0.0000153200
         0.0000000000     0.0000000000     0.0000000000     -0.0001509100    -0.0000483400    -0.0000688200
         0.0000000000     0.0000000000     0.0000000000      0.0002300600     0.0003445200     0.0000456100
         0.0000000000     0.0000000000     0.0000000000     -0.0001535300     0.0002501900    -0.0000104500
         0.0000000000     0.0000000000     0.0000000000      0.0000752500    -0.0004230800    -0.0000371200
         0.0000000000     0.0000000000     0.0000000000     -0.0001923000    -0.0004074100     0.0000435500
         0.0000000000     0.0000000000     0.0000000000     -0.0000394700     0.0001638300     0.0000041400
         0.0000000000     0.0000000000     0.0000000000      0.0002649100     0.0002910800     0.0001041700
         0.0000000000     0.0000000000     0.0000000000     -0.0002213600     0.0001781000    -0.0001045300
         0.0000000000     0.0000000000     0.0000000000      0.0004343500     0.0002146300     0.0004042700
         0.0000000000     0.0000000000     0.0000000000      0.0084307400     0.0111024500     0.0000571900
         0.0000000000     0.0000000000     0.0000000000     -0.0084389600     0.0112322400    -0.0000176900
         0.0000000000     0.0000000000     0.0000000000      0.0084486100     0.0111295600    -0.0000286700
         0.0000000000     0.0000000000     0.0000000000     -0.0084805700     0.0111479700    -0.0000069000
         0.0000000000     0.0000000000     0.0000000000     -0.0022760000    -0.0053355100     0.0015862800
         0.0000000000     0.0000000000     0.0000000000     -0.0027742800     0.0068590900    -0.0081045800
         0.0000000000     0.0000000000     0.0000000000     -0.0006115200    -0.0005524200    -0.0009101500
         0.0000000000     0.0000000000     0.0000000000      0.0043122200    -0.0027549300     0.0019279500
         0.0000000000     0.0000000000     0.0000000000     -0.0000281800     0.0001036100     0.0027991900
         0.0000000000     0.0000000000     0.0000000000     -0.0024896200    -0.0041843700    -0.0000860300
         0.0000000000     0.0000000000     0.0000000000     -0.0021568300     0.0000230000     0.0012854600
         0.0000000000     0.0000000000     0.0000000000      0.0021119200    -0.0040525600    -0.0007114500
         0.0000000000     0.0000000000     0.0000000000     -0.0006106600     0.0002231200     0.0003484800
         0.0000000000     0.0000000000     0.0000000000      0.0016972900     0.0032701600     0.0040302300
         0.0000000000     0.0000000000     0.0000000000      0.0049737100    -0.0060370700     0.0008686300
         0.0000000000     0.0000000000     0.0000000000     -0.0000761500     0.0010328800     0.0005812400
         0.0000000000     0.0000000000     0.0000000000     -0.0014523400     0.0047786600     0.0001373300
         0.0000000000     0.0000000000     0.0000000000     -0.0025824800    -0.0008405000    -0.0048778600
         0.0000000000     0.0000000000     0.0000000000     -0.0033487000     0.0076996600     0.0028464400
         0.0000000000     0.0000000000     0.0000000000      0.0011419100     0.0161597000    -0.0052550100
         0.0000000000     0.0000000000     0.0000000000      0.0040783000    -0.0071132200     0.0026769300
