CRYSTAL
PRIMVEC
     8.5428654021    0.0000000000    0.0000000000
     0.0000000000   29.9999975181    0.0000000000
     0.0000000000    0.0000000000   15.4999955853
PRIMCOORD
 50 1
         0.0000000000     0.0000000000     0.0000000000      0.0826944400     0.0109075500     0.0000870200
         0.0000000000     0.0000000000     0.0000000000     -0.0826533100     0.0115567900    -0.0000614800
         0.0000000000     0.0000000000     0.0000000000      0.0207272000    -0.0250064500    -0.0005164400
         0.0000000000     0.0000000000     0.0000000000     -0.0210338500    -0.0244828800     0.0002923400
         0.0000000000     0.0000000000     0.0000000000      0.0001945800    -0.0000233700     0.0000233200
         0.0000000000     0.0000000000     0.0000000000     -0.0001645600    -0.0001685300    -0.0000004300
         0.0000000000     0.0000000000     0.0000000000      0.0000195900     0.0000873700    -0.0000169400
         0.0000000000     0.0000000000     0.0000000000     -0.0000839900     0.0001913900     0.0000011400
         0.0000000000     0.0000000000     0.0000000000      0.0000645800    -0.0000968900     0.0000187700
         0.0000000000     0.0000000000     0.0000000000     -0.0000349200    -0.0003515300     0.0000355300
         0.0000000000     0.0000000000     0.0000000000     -0.0001632100    -0.0000128300    -0.0000494500
         0.0000000000     0.0000000000     0.0000000000      0.0002439200     0.0001587100     0.0000879100
         0.0000000000     0.0000000000     0.0000000000     -0.0002456100     0.0004266200     0.0003048500
         0.0000000000     0.0000000000     0.0000000000      0.0001395000     0.0003670500    -0.0000729900
         0.0000000000     0.0000000000     0.0000000000      0.0834273500     0.0109871700    -0.0001717500
         0.0000000000     0.0000000000     0.0000000000     -0.0828466900     0.0107756200     0.0001074800
         0.0000000000     0.0000000000     0.0000000000      0.0208251800    -0.0237640900     0.0001755800
         0.0000000000     0.0000000000     0.0000000000     -0.0211900100    -0.0258879100     0.0000562000
         0.0000000000     0.0000000000     0.0000000000      0.0001651900    -0.0000749100     0.0000193000
         0.0000000000     0.0000000000     0.0000000000     -0.0001782900    -0.0001439200    -0.0000179300
         0.0000000000     0.0000000000     0.0000000000      0.0000433200     0.0001492000     0.0000330700
         0.0000000000     0.0000000000     0.0000000000     -0.0000421300     0.0001854800     0.0000171300
         0.0000000000     0.0000000000     0.0000000000      0.0000135000    -0.0001278900    -0.0000240100
         0.0000000000     0.0000000000     0.0000000000     -0.0000615800    -0.0002546700     0.0000601700
         0.0000000000     0.0000000000     0.0000000000     -0.0000500700    -0.0001351600     0.0000713400
         0.0000000000     0.0000000000     0.0000000000      0.0001992000     0.0000925000     0.0001148400
         0.0000000000     0.0000000000     0.0000000000     -0.0001193700     0.0001225300     0.0000040200
         0.0000000000     0.0000000000     0.0000000000      0.0001142100     0.0000932600     0.0004595600
         0.0000000000     0.0000000000     0.0000000000      0.0083583500     0.0111197700     0.0000515900
         0.0000000000     0.0000000000     0.0000000000     -0.0083540400     0.0112062000    -0.0000266000
         0.0000000000     0.0000000000     0.0000000000      0.0083822400     0.0111382600    -0.0000299800
         0.0000000000     0.0000000000     0.0000000000     -0.0083939400     0.0111353600     0.0000053300
         0.0000000000     0.0000000000     0.0000000000     -0.0020742500    -0.0051102300     0.0014091600
         0.0000000000     0.0000000000     0.0000000000     -0.0028873600     0.0056621400    -0.0082410000
         0.0000000000     0.0000000000     0.0000000000     -0.0010054700    -0.0014880300    -0.0003922100
         0.0000000000     0.0000000000     0.0000000000      0.0043561900    -0.0027733900     0.0019644100
         0.0000000000     0.0000000000     0.0000000000     -0.0002529100     0.0004015800     0.0026733900
         0.0000000000     0.0000000000     0.0000000000     -0.0036093300    -0.0049915500     0.0001731200
         0.0000000000     0.0000000000     0.0000000000     -0.0020709500     0.0000633400     0.0013308400
         0.0000000000     0.0000000000     0.0000000000      0.0021460100    -0.0038970500    -0.0007135700
         0.0000000000     0.0000000000     0.0000000000     -0.0005818400    -0.0000406400     0.0005144900
         0.0000000000     0.0000000000     0.0000000000      0.0018482100     0.0036834600     0.0037786800
         0.0000000000     0.0000000000     0.0000000000      0.0048521700    -0.0061113200     0.0008344700
         0.0000000000     0.0000000000     0.0000000000     -0.0000160500     0.0011961000     0.0005957700
         0.0000000000     0.0000000000     0.0000000000     -0.0015249900     0.0047649700     0.0004802400
         0.0000000000     0.0000000000     0.0000000000     -0.0028335100    -0.0010583900    -0.0047799000
         0.0000000000     0.0000000000     0.0000000000     -0.0033575700     0.0079420100     0.0026229600
         0.0000000000     0.0000000000     0.0000000000      0.0038853100     0.0080852500    -0.0029337200
         0.0000000000     0.0000000000     0.0000000000      0.0097692900     0.0066118200    -0.0022451000
         0.0000000000     0.0000000000     0.0000000000     -0.0066397500    -0.0031098600     0.0018894800
