CRYSTAL
PRIMVEC
     9.8639806455    0.0000000000    0.0000000000
     0.0000000000   29.9999950877    0.0000000000
     0.0000000000    0.0000000000   15.5000027228
PRIMCOORD
 51 1
         0.0000000000     0.0000000000     0.0000000000     -0.0007859600    -0.0459174900     0.0003315800
         0.0000000000     0.0000000000     0.0000000000      0.0008042400    -0.0007291000    -0.0000299600
         0.0000000000     0.0000000000     0.0000000000      0.0018438700     0.0316404500     0.0000539700
         0.0000000000     0.0000000000     0.0000000000     -0.0001588500    -0.0006236000     0.0000663200
         0.0000000000     0.0000000000     0.0000000000      0.0047263600    -0.0471408500    -0.0005145500
         0.0000000000     0.0000000000     0.0000000000     -0.0001704800    -0.0004847900     0.0000351700
         0.0000000000     0.0000000000     0.0000000000     -0.0024124600     0.0323347300     0.0002807200
         0.0000000000     0.0000000000     0.0000000000      0.0002648200    -0.0001587700    -0.0000135300
         0.0000000000     0.0000000000     0.0000000000     -0.0004151900    -0.0415606900    -0.0010132900
         0.0000000000     0.0000000000     0.0000000000     -0.0008529800    -0.0006329400     0.0000385900
         0.0000000000     0.0000000000     0.0000000000     -0.0007311300     0.0333657700     0.0001714900
         0.0000000000     0.0000000000     0.0000000000      0.0002819900     0.0011870800    -0.0000197100
         0.0000000000     0.0000000000     0.0000000000     -0.0033737600    -0.0458907200     0.0002308400
         0.0000000000     0.0000000000     0.0000000000      0.0002150000    -0.0003870800     0.0000019900
         0.0000000000     0.0000000000     0.0000000000      0.0009176500     0.0336363800     0.0000671500
         0.0000000000     0.0000000000     0.0000000000     -0.0004139300     0.0008469200     0.0000377100
         0.0000000000     0.0000000000     0.0000000000      0.0002118200     0.0004729900    -0.0001247300
         0.0000000000     0.0000000000     0.0000000000     -0.0012542700    -0.0004960100    -0.0000780100
         0.0000000000     0.0000000000     0.0000000000     -0.0002688400     0.0002662400    -0.0000171000
         0.0000000000     0.0000000000     0.0000000000      0.0000695000    -0.0023994000     0.0006651500
         0.0000000000     0.0000000000     0.0000000000      0.0001619000     0.0006494300    -0.0001031100
         0.0000000000     0.0000000000     0.0000000000      0.0015734100    -0.0001482100    -0.0000274400
         0.0000000000     0.0000000000     0.0000000000      0.0004004200     0.0000171800    -0.0000139400
         0.0000000000     0.0000000000     0.0000000000     -0.0005702600    -0.0008245400     0.0011346600
         0.0000000000     0.0000000000     0.0000000000     -0.0005666800     0.0005274700     0.0000535900
         0.0000000000     0.0000000000     0.0000000000      0.0002540900    -0.0009088500     0.0003872200
         0.0000000000     0.0000000000     0.0000000000      0.0006797700    -0.0009182800     0.0000381100
         0.0000000000     0.0000000000     0.0000000000      0.0004834100    -0.0002503000    -0.0002412400
         0.0000000000     0.0000000000     0.0000000000     -0.0000225800    -0.0005678500     0.0000547400
         0.0000000000     0.0000000000     0.0000000000     -0.0000205200     0.0001540800     0.0001141600
         0.0000000000     0.0000000000     0.0000000000     -0.0007037700    -0.0006035400     0.0000210400
         0.0000000000     0.0000000000     0.0000000000     -0.0004676200    -0.0003325200    -0.0000903700
         0.0000000000     0.0000000000     0.0000000000      0.0003016600     0.0100785200     0.0000414600
         0.0000000000     0.0000000000     0.0000000000      0.0001552400     0.0099164000     0.0001720400
         0.0000000000     0.0000000000     0.0000000000     -0.0001889600     0.0098643200     0.0000895500
         0.0000000000     0.0000000000     0.0000000000      0.0000303900     0.0099858000    -0.0000592900
         0.0000000000     0.0000000000     0.0000000000     -0.0007058700    -0.0046837900    -0.0018218800
         0.0000000000     0.0000000000     0.0000000000     -0.0005400200    -0.0059146100     0.0003461900
         0.0000000000     0.0000000000     0.0000000000     -0.0007581700     0.0071556400    -0.0040596400
         0.0000000000     0.0000000000     0.0000000000     -0.0039797400     0.0044853500     0.0027826000
         0.0000000000     0.0000000000     0.0000000000     -0.0006260200     0.0117144800     0.0024267000
         0.0000000000     0.0000000000     0.0000000000      0.0071964700    -0.0024125100     0.0023036400
         0.0000000000     0.0000000000     0.0000000000     -0.0035959600    -0.0011795900    -0.0008915200
         0.0000000000     0.0000000000     0.0000000000      0.0019454200    -0.0009192900     0.0041026000
         0.0000000000     0.0000000000     0.0000000000     -0.0014635600     0.0052843000    -0.0005311000
         0.0000000000     0.0000000000     0.0000000000      0.0000229700     0.0012488200    -0.0005369500
         0.0000000000     0.0000000000     0.0000000000      0.0016977700     0.0015240400    -0.0011898900
         0.0000000000     0.0000000000     0.0000000000      0.0006458400     0.0010562400     0.0055843600
         0.0000000000     0.0000000000     0.0000000000     -0.0037606600    -0.0010693600    -0.0009468300
         0.0000000000     0.0000000000     0.0000000000      0.0002980800    -0.0009127100    -0.0061051600
         0.0000000000     0.0000000000     0.0000000000      0.0036261400     0.0006547400    -0.0032041000
