CRYSTAL
PRIMVEC
     8.5428654021    0.0000000000    0.0000000000
     0.0000000000   29.9999975181    0.0000000000
     0.0000000000    0.0000000000   15.4999955853
PRIMCOORD
 44 1
         0.0000000000     0.0000000000     0.0000000000      0.0809661100     0.0130413600    -0.0002781400
         0.0000000000     0.0000000000     0.0000000000     -0.0804893000     0.0122649800    -0.0002557300
         0.0000000000     0.0000000000     0.0000000000      0.0233085000    -0.0239643100     0.0004028800
         0.0000000000     0.0000000000     0.0000000000     -0.0243316800    -0.0285511300     0.0003359500
         0.0000000000     0.0000000000     0.0000000000      0.0001174000    -0.0003786500    -0.0000046900
         0.0000000000     0.0000000000     0.0000000000     -0.0001166200    -0.0003673300    -0.0000325700
         0.0000000000     0.0000000000     0.0000000000      0.0002055900     0.0004265200    -0.0000119500
         0.0000000000     0.0000000000     0.0000000000     -0.0001427200     0.0004384300     0.0000315400
         0.0000000000     0.0000000000     0.0000000000     -0.0006903300    -0.0000645000    -0.0000416500
         0.0000000000     0.0000000000     0.0000000000      0.0006393700    -0.0000082600    -0.0000002600
         0.0000000000     0.0000000000     0.0000000000     -0.0000709300    -0.0005288300     0.0000367100
         0.0000000000     0.0000000000     0.0000000000      0.0000292100    -0.0003609600    -0.0000111500
         0.0000000000     0.0000000000     0.0000000000      0.0000443500     0.0007988300     0.0000111600
         0.0000000000     0.0000000000     0.0000000000      0.0000094900     0.0004446500    -0.0001547900
         0.0000000000     0.0000000000     0.0000000000      0.0804893000     0.0122642900    -0.0002557400
         0.0000000000     0.0000000000     0.0000000000     -0.0809661200     0.0130418500    -0.0002781800
         0.0000000000     0.0000000000     0.0000000000      0.0243289600    -0.0285547300     0.0003353500
         0.0000000000     0.0000000000     0.0000000000     -0.0233110200    -0.0239613300     0.0004025100
         0.0000000000     0.0000000000     0.0000000000      0.0001141200    -0.0003526000    -0.0000316600
         0.0000000000     0.0000000000     0.0000000000     -0.0001170200    -0.0003891900    -0.0000048400
         0.0000000000     0.0000000000     0.0000000000      0.0001456700     0.0004285300     0.0000311500
         0.0000000000     0.0000000000     0.0000000000     -0.0002031700     0.0004296000    -0.0000111700
         0.0000000000     0.0000000000     0.0000000000     -0.0006346800    -0.0000219500    -0.0000000300
         0.0000000000     0.0000000000     0.0000000000      0.0006922000    -0.0000477900    -0.0000418500
         0.0000000000     0.0000000000     0.0000000000     -0.0000307800    -0.0003446900    -0.0000113700
         0.0000000000     0.0000000000     0.0000000000      0.0000706500    -0.0005552500     0.0000365800
         0.0000000000     0.0000000000     0.0000000000     -0.0000223300     0.0004546400    -0.0001546000
         0.0000000000     0.0000000000     0.0000000000     -0.0000410000     0.0008090400     0.0000112700
         0.0000000000     0.0000000000     0.0000000000      0.0083873400     0.0112673400    -0.0000503100
         0.0000000000     0.0000000000     0.0000000000     -0.0084954600     0.0111177900    -0.0000541300
         0.0000000000     0.0000000000     0.0000000000      0.0084954700     0.0111177900    -0.0000540900
         0.0000000000     0.0000000000     0.0000000000     -0.0083873500     0.0112673300    -0.0000502900
         0.0000000000     0.0000000000     0.0000000000     -0.0008189000     0.0007939000    -0.0002279900
         0.0000000000     0.0000000000     0.0000000000     -0.0000003600     0.0052773700    -0.0066484900
         0.0000000000     0.0000000000     0.0000000000      0.0008256900     0.0007670000    -0.0002283900
         0.0000000000     0.0000000000     0.0000000000      0.0019927800     0.0048008500    -0.0000624100
         0.0000000000     0.0000000000     0.0000000000      0.0004524900     0.0008709200    -0.0001636700
         0.0000000000     0.0000000000     0.0000000000      0.0028598600    -0.0046704300     0.0000058800
         0.0000000000     0.0000000000     0.0000000000     -0.0028585300    -0.0046673300     0.0000055600
         0.0000000000     0.0000000000     0.0000000000     -0.0047657600    -0.0024019900     0.0013830600
         0.0000000000     0.0000000000     0.0000000000     -0.0019862500     0.0048138000    -0.0000621100
         0.0000000000     0.0000000000     0.0000000000     -0.0004578100     0.0008792500    -0.0001637500
         0.0000000000     0.0000000000     0.0000000000      0.0047633300    -0.0023921600     0.0013831000
         0.0000000000     0.0000000000     0.0000000000      0.0000002200     0.0047673400     0.0049333300
