CRYSTAL
PRIMVEC
     8.5428654021    0.0000000000    0.0000000000
     0.0000000000   29.9999975181    0.0000000000
     0.0000000000    0.0000000000   15.4999955853
PRIMCOORD
 45 1
         0.0000000000     0.0000000000     0.0000000000      0.0869359900     0.0088020200    -0.0002178500
         0.0000000000     0.0000000000     0.0000000000     -0.0862446600     0.0076067800    -0.0002147200
         0.0000000000     0.0000000000     0.0000000000      0.0161170100    -0.0193428900     0.0003220700
         0.0000000000     0.0000000000     0.0000000000     -0.0180975600    -0.0244224400     0.0002846200
         0.0000000000     0.0000000000     0.0000000000      0.0001862500    -0.0002802600    -0.0000377000
         0.0000000000     0.0000000000     0.0000000000     -0.0002092200    -0.0001664900    -0.0000046200
         0.0000000000     0.0000000000     0.0000000000      0.0001996900     0.0003437800     0.0000259000
         0.0000000000     0.0000000000     0.0000000000     -0.0000838100     0.0002322600    -0.0000296700
         0.0000000000     0.0000000000     0.0000000000     -0.0002401000    -0.0002955600    -0.0000073400
         0.0000000000     0.0000000000     0.0000000000      0.0001376600    -0.0001145800     0.0000173000
         0.0000000000     0.0000000000     0.0000000000     -0.0002914500    -0.0001912300    -0.0000360400
         0.0000000000     0.0000000000     0.0000000000      0.0002987000    -0.0001123000    -0.0000083700
         0.0000000000     0.0000000000     0.0000000000     -0.0000889600     0.0007163000    -0.0000269400
         0.0000000000     0.0000000000     0.0000000000      0.0002718000     0.0005504600    -0.0001168700
         0.0000000000     0.0000000000     0.0000000000      0.0862437000     0.0076089600    -0.0002147600
         0.0000000000     0.0000000000     0.0000000000     -0.0869354200     0.0088006400    -0.0002178800
         0.0000000000     0.0000000000     0.0000000000      0.0181014100    -0.0244146400     0.0002846400
         0.0000000000     0.0000000000     0.0000000000     -0.0161177700    -0.0193501200     0.0003219200
         0.0000000000     0.0000000000     0.0000000000      0.0002022900    -0.0002042200    -0.0000049400
         0.0000000000     0.0000000000     0.0000000000     -0.0001707700    -0.0002439300    -0.0000372400
         0.0000000000     0.0000000000     0.0000000000      0.0000821400     0.0002589500    -0.0000294300
         0.0000000000     0.0000000000     0.0000000000     -0.0002060000     0.0003079700     0.0000256700
         0.0000000000     0.0000000000     0.0000000000     -0.0001586700    -0.0000864900     0.0000177900
         0.0000000000     0.0000000000     0.0000000000      0.0002479500    -0.0002929400    -0.0000072600
         0.0000000000     0.0000000000     0.0000000000     -0.0002919500    -0.0001601000    -0.0000090700
         0.0000000000     0.0000000000     0.0000000000      0.0002910600    -0.0001833100    -0.0000360000
         0.0000000000     0.0000000000     0.0000000000     -0.0002415600     0.0005387700    -0.0001169500
         0.0000000000     0.0000000000     0.0000000000      0.0000738800     0.0007134000    -0.0000272400
         0.0000000000     0.0000000000     0.0000000000      0.0084947800     0.0112682800    -0.0000438500
         0.0000000000     0.0000000000     0.0000000000     -0.0086182700     0.0111102400    -0.0000455600
         0.0000000000     0.0000000000     0.0000000000      0.0086182000     0.0111102600    -0.0000455500
         0.0000000000     0.0000000000     0.0000000000     -0.0084948700     0.0112681400    -0.0000438300
         0.0000000000     0.0000000000     0.0000000000     -0.0002093600     0.0001926100    -0.0000355300
         0.0000000000     0.0000000000     0.0000000000     -0.0000003700    -0.0017170800    -0.0042544300
         0.0000000000     0.0000000000     0.0000000000      0.0001956500     0.0002344800    -0.0000348500
         0.0000000000     0.0000000000     0.0000000000      0.0017437700     0.0048148100    -0.0001240800
         0.0000000000     0.0000000000     0.0000000000     -0.0001508100     0.0006314200    -0.0000758800
         0.0000000000     0.0000000000     0.0000000000      0.0027877800    -0.0047210400    -0.0000788100
         0.0000000000     0.0000000000     0.0000000000     -0.0027835400    -0.0047161000    -0.0000788400
         0.0000000000     0.0000000000     0.0000000000     -0.0048984500    -0.0017524100     0.0005019900
         0.0000000000     0.0000000000     0.0000000000     -0.0017610800     0.0048188800    -0.0001245200
         0.0000000000     0.0000000000     0.0000000000      0.0001565800     0.0006314500    -0.0000759800
         0.0000000000     0.0000000000     0.0000000000      0.0049081500    -0.0017622800     0.0005017900
         0.0000000000     0.0000000000     0.0000000000      0.0000005200     0.0129017100     0.0120795200
         0.0000000000     0.0000000000     0.0000000000     -0.0000003000    -0.0009321400    -0.0079206200
