CRYSTAL
PRIMVEC
     8.5428654021    0.0000000000    0.0000000000
     0.0000000000   29.9999975181    0.0000000000
     0.0000000000    0.0000000000   15.4999955853
PRIMCOORD
 46 1
         0.0000000000     0.0000000000     0.0000000000      0.0852961500     0.0097653400    -0.0000762300
         0.0000000000     0.0000000000     0.0000000000     -0.0849747300     0.0090642700    -0.0000817600
         0.0000000000     0.0000000000     0.0000000000      0.0183237300    -0.0211784000     0.0001055500
         0.0000000000     0.0000000000     0.0000000000     -0.0198881000    -0.0246399800     0.0000924700
         0.0000000000     0.0000000000     0.0000000000      0.0001983500    -0.0003012000     0.0000064900
         0.0000000000     0.0000000000     0.0000000000     -0.0001987000    -0.0001427200     0.0000021300
         0.0000000000     0.0000000000     0.0000000000      0.0002117500     0.0003976700     0.0000052100
         0.0000000000     0.0000000000     0.0000000000     -0.0000864700     0.0002731900    -0.0000072600
         0.0000000000     0.0000000000     0.0000000000     -0.0002212800    -0.0003691300    -0.0000023500
         0.0000000000     0.0000000000     0.0000000000      0.0002171700    -0.0001121400     0.0000020500
         0.0000000000     0.0000000000     0.0000000000     -0.0002359700    -0.0000876700     0.0000015100
         0.0000000000     0.0000000000     0.0000000000      0.0001873700    -0.0002095700    -0.0000258800
         0.0000000000     0.0000000000     0.0000000000      0.0000167000     0.0005362500    -0.0000181500
         0.0000000000     0.0000000000     0.0000000000      0.0004077900     0.0003905400    -0.0001231800
         0.0000000000     0.0000000000     0.0000000000      0.0845182800     0.0089550700    -0.0000910500
         0.0000000000     0.0000000000     0.0000000000     -0.0852063200     0.0100786000    -0.0000779400
         0.0000000000     0.0000000000     0.0000000000      0.0201245700    -0.0255656300     0.0001238100
         0.0000000000     0.0000000000     0.0000000000     -0.0182959600    -0.0212364200     0.0001050100
         0.0000000000     0.0000000000     0.0000000000      0.0001724400    -0.0002133700    -0.0000122400
         0.0000000000     0.0000000000     0.0000000000     -0.0001872400    -0.0002359900     0.0000070600
         0.0000000000     0.0000000000     0.0000000000      0.0001348400     0.0003049900    -0.0000004800
         0.0000000000     0.0000000000     0.0000000000     -0.0002147900     0.0003470700     0.0000031400
         0.0000000000     0.0000000000     0.0000000000     -0.0002402600    -0.0001065200     0.0000254900
         0.0000000000     0.0000000000     0.0000000000      0.0003362400    -0.0001558400    -0.0000292300
         0.0000000000     0.0000000000     0.0000000000     -0.0002402000    -0.0002258600     0.0000134300
         0.0000000000     0.0000000000     0.0000000000      0.0002346500    -0.0003294000    -0.0000212100
         0.0000000000     0.0000000000     0.0000000000     -0.0002768800     0.0004976800    -0.0000233100
         0.0000000000     0.0000000000     0.0000000000     -0.0000075300     0.0008237100    -0.0000013400
         0.0000000000     0.0000000000     0.0000000000      0.0083687600     0.0112495200    -0.0000151200
         0.0000000000     0.0000000000     0.0000000000     -0.0084508700     0.0110901800    -0.0000187600
         0.0000000000     0.0000000000     0.0000000000      0.0084752600     0.0111109100    -0.0000157400
         0.0000000000     0.0000000000     0.0000000000     -0.0083588700     0.0112073400    -0.0000152000
         0.0000000000     0.0000000000     0.0000000000     -0.0009783200    -0.0001953600    -0.0000858100
         0.0000000000     0.0000000000     0.0000000000      0.0062631600     0.0017778100    -0.0008118600
         0.0000000000     0.0000000000     0.0000000000      0.0001484100     0.0000639000     0.0000390800
         0.0000000000     0.0000000000     0.0000000000      0.0017401000     0.0050650600    -0.0000147900
         0.0000000000     0.0000000000     0.0000000000      0.0002216200     0.0009814000    -0.0000746400
         0.0000000000     0.0000000000     0.0000000000      0.0028049700    -0.0070922200    -0.0005477500
         0.0000000000     0.0000000000     0.0000000000     -0.0032055400    -0.0046894700    -0.0000701100
         0.0000000000     0.0000000000     0.0000000000     -0.0031107800    -0.0025559400     0.0001818100
         0.0000000000     0.0000000000     0.0000000000     -0.0026665200     0.0035212600    -0.0001744100
         0.0000000000     0.0000000000     0.0000000000      0.0000243100     0.0005363600     0.0000304900
         0.0000000000     0.0000000000     0.0000000000      0.0042815500    -0.0023889600    -0.0000954800
         0.0000000000     0.0000000000     0.0000000000     -0.0041022200     0.0091812100     0.0005500500
         0.0000000000     0.0000000000     0.0000000000     -0.0037942500     0.0118323400    -0.0000187600
         0.0000000000     0.0000000000     0.0000000000      0.0022336600    -0.0070199000     0.0012552500
