CRYSTAL
PRIMVEC
     9.8639806455    0.0000000000    0.0000000000
     0.0000000000   29.9999950877    0.0000000000
     0.0000000000    0.0000000000   15.5000027228
PRIMCOORD
 47 1
         0.0000000000     0.0000000000     0.0000000000      0.0027810400    -0.0401663000     0.0001112100
         0.0000000000     0.0000000000     0.0000000000      0.0001732100    -0.0005122400    -0.0000684800
         0.0000000000     0.0000000000     0.0000000000      0.0015093000     0.0323733100    -0.0000159200
         0.0000000000     0.0000000000     0.0000000000     -0.0003272100     0.0001749100    -0.0000403400
         0.0000000000     0.0000000000     0.0000000000     -0.0051700600    -0.0438256100    -0.0002912200
         0.0000000000     0.0000000000     0.0000000000     -0.0000706900    -0.0005395400    -0.0000358400
         0.0000000000     0.0000000000     0.0000000000     -0.0007744800     0.0313574600    -0.0000260900
         0.0000000000     0.0000000000     0.0000000000      0.0000605300     0.0001475200     0.0000299000
         0.0000000000     0.0000000000     0.0000000000     -0.0013672800    -0.0474573400     0.0001803600
         0.0000000000     0.0000000000     0.0000000000     -0.0000467500    -0.0005970300    -0.0000063500
         0.0000000000     0.0000000000     0.0000000000     -0.0015339300     0.0332038700    -0.0000997100
         0.0000000000     0.0000000000     0.0000000000      0.0003027900     0.0001993500     0.0000053200
         0.0000000000     0.0000000000     0.0000000000      0.0038489800    -0.0487070800     0.0003211300
         0.0000000000     0.0000000000     0.0000000000     -0.0001203500    -0.0005460200    -0.0000308600
         0.0000000000     0.0000000000     0.0000000000      0.0005713200     0.0336204500    -0.0000599300
         0.0000000000     0.0000000000     0.0000000000     -0.0000623500     0.0003071000    -0.0000042900
         0.0000000000     0.0000000000     0.0000000000      0.0005404200    -0.0000739600     0.0000117100
         0.0000000000     0.0000000000     0.0000000000      0.0003708100     0.0002761000    -0.0000120100
         0.0000000000     0.0000000000     0.0000000000     -0.0006324600    -0.0001864300     0.0000198600
         0.0000000000     0.0000000000     0.0000000000     -0.0005302900     0.0002631900    -0.0001137400
         0.0000000000     0.0000000000     0.0000000000      0.0001239200     0.0004775400    -0.0000263000
         0.0000000000     0.0000000000     0.0000000000     -0.0005828100    -0.0002927000    -0.0000253700
         0.0000000000     0.0000000000     0.0000000000      0.0001846600     0.0000068200     0.0000576600
         0.0000000000     0.0000000000     0.0000000000     -0.0007373700    -0.0042625300     0.0002191100
         0.0000000000     0.0000000000     0.0000000000     -0.0002106200     0.0002527100    -0.0000533300
         0.0000000000     0.0000000000     0.0000000000      0.0006331100    -0.0001305000     0.0000282100
         0.0000000000     0.0000000000     0.0000000000      0.0005802200    -0.0001167100    -0.0000171600
         0.0000000000     0.0000000000     0.0000000000      0.0009509300    -0.0001717000    -0.0001705900
         0.0000000000     0.0000000000     0.0000000000     -0.0003727400    -0.0001860500     0.0000222900
         0.0000000000     0.0000000000     0.0000000000     -0.0004100200     0.0002078200     0.0000290800
         0.0000000000     0.0000000000     0.0000000000     -0.0001365400    -0.0006485600     0.0000588700
         0.0000000000     0.0000000000     0.0000000000     -0.0002116300     0.0004369600     0.0000433200
         0.0000000000     0.0000000000     0.0000000000      0.0000958400     0.0098515000     0.0000140300
         0.0000000000     0.0000000000     0.0000000000     -0.0002355800     0.0101088200     0.0000075000
         0.0000000000     0.0000000000     0.0000000000      0.0000038100     0.0100875700    -0.0000690000
         0.0000000000     0.0000000000     0.0000000000      0.0004443300     0.0098839400    -0.0000495000
         0.0000000000     0.0000000000     0.0000000000      0.0017987600     0.0039805500    -0.0009409200
         0.0000000000     0.0000000000     0.0000000000      0.0003358600    -0.0044564500     0.0001377900
         0.0000000000     0.0000000000     0.0000000000      0.0003290100    -0.0051642500     0.0001123600
         0.0000000000     0.0000000000     0.0000000000     -0.0072795900    -0.0028004100     0.0000159500
         0.0000000000     0.0000000000     0.0000000000     -0.0007652500    -0.0008026600    -0.0005410000
         0.0000000000     0.0000000000     0.0000000000      0.0000191800     0.0053780500    -0.0002423200
         0.0000000000     0.0000000000     0.0000000000      0.0017257200     0.0060887200    -0.0003649500
         0.0000000000     0.0000000000     0.0000000000      0.0048793300    -0.0002466400    -0.0001520700
         0.0000000000     0.0000000000     0.0000000000     -0.0001629400     0.0016412300    -0.0000326500
         0.0000000000     0.0000000000     0.0000000000      0.0068659300     0.0138378200     0.0062241800
         0.0000000000     0.0000000000     0.0000000000     -0.0073880600    -0.0022726400    -0.0041598700
