CRYSTAL
PRIMVEC
     9.8639806455    0.0000000000    0.0000000000
     0.0000000000   29.9999950877    0.0000000000
     0.0000000000    0.0000000000   15.5000027228
PRIMCOORD
 48 1
         0.0000000000     0.0000000000     0.0000000000      0.0030737600    -0.0406872200    -0.0000784800
         0.0000000000     0.0000000000     0.0000000000      0.0002765100    -0.0005142000     0.0000290100
         0.0000000000     0.0000000000     0.0000000000      0.0007042600     0.0326431500     0.0000044900
         0.0000000000     0.0000000000     0.0000000000     -0.0001231600     0.0002476200     0.0000500600
         0.0000000000     0.0000000000     0.0000000000     -0.0045680500    -0.0438695200     0.0001597800
         0.0000000000     0.0000000000     0.0000000000      0.0001503000    -0.0005287600     0.0000275500
         0.0000000000     0.0000000000     0.0000000000     -0.0007852300     0.0318208000     0.0000069100
         0.0000000000     0.0000000000     0.0000000000      0.0000592500    -0.0001363500     0.0000194500
         0.0000000000     0.0000000000     0.0000000000     -0.0017526400    -0.0472922900    -0.0002001600
         0.0000000000     0.0000000000     0.0000000000     -0.0001514600    -0.0006188600     0.0000217000
         0.0000000000     0.0000000000     0.0000000000     -0.0006666800     0.0333185700     0.0000647200
         0.0000000000     0.0000000000     0.0000000000      0.0001058200     0.0001742600     0.0000060600
         0.0000000000     0.0000000000     0.0000000000      0.0032254700    -0.0490113200    -0.0002121500
         0.0000000000     0.0000000000     0.0000000000     -0.0002301000    -0.0005141400    -0.0000039400
         0.0000000000     0.0000000000     0.0000000000      0.0005069300     0.0336932600     0.0000306500
         0.0000000000     0.0000000000     0.0000000000     -0.0000408000     0.0006398000    -0.0000090000
         0.0000000000     0.0000000000     0.0000000000      0.0002966300    -0.0000990600     0.0000373900
         0.0000000000     0.0000000000     0.0000000000      0.0002091600     0.0001000700     0.0000228000
         0.0000000000     0.0000000000     0.0000000000     -0.0004948500    -0.0002781200     0.0000338300
         0.0000000000     0.0000000000     0.0000000000     -0.0002231000     0.0003676000     0.0001203300
         0.0000000000     0.0000000000     0.0000000000     -0.0000521700     0.0005191600     0.0000417600
         0.0000000000     0.0000000000     0.0000000000     -0.0004168300    -0.0002821000     0.0000152400
         0.0000000000     0.0000000000     0.0000000000      0.0000983800    -0.0000770900     0.0000445800
         0.0000000000     0.0000000000     0.0000000000     -0.0007965700    -0.0045354400     0.0001226700
         0.0000000000     0.0000000000     0.0000000000     -0.0000062200     0.0003619200     0.0000030300
         0.0000000000     0.0000000000     0.0000000000      0.0003968400    -0.0000618500    -0.0000899700
         0.0000000000     0.0000000000     0.0000000000      0.0004617000    -0.0001774900    -0.0000081700
         0.0000000000     0.0000000000     0.0000000000      0.0008000700    -0.0000468800     0.0000243700
         0.0000000000     0.0000000000     0.0000000000     -0.0001819700    -0.0001502700    -0.0000207300
         0.0000000000     0.0000000000     0.0000000000     -0.0003754300     0.0000205000    -0.0000221800
         0.0000000000     0.0000000000     0.0000000000     -0.0000829300    -0.0005460800    -0.0000090800
         0.0000000000     0.0000000000     0.0000000000     -0.0001157800     0.0004755200    -0.0000377000
         0.0000000000     0.0000000000     0.0000000000      0.0000720400     0.0098092500    -0.0000109800
         0.0000000000     0.0000000000     0.0000000000     -0.0002265200     0.0100429400     0.0000020500
         0.0000000000     0.0000000000     0.0000000000      0.0000228700     0.0100434900     0.0000479800
         0.0000000000     0.0000000000     0.0000000000      0.0004273400     0.0098523700     0.0000276300
         0.0000000000     0.0000000000     0.0000000000      0.0019760800     0.0038493500     0.0007086800
         0.0000000000     0.0000000000     0.0000000000      0.0003944000    -0.0044706900    -0.0001152000
         0.0000000000     0.0000000000     0.0000000000      0.0012765400    -0.0066998500     0.0004192100
         0.0000000000     0.0000000000     0.0000000000     -0.0072855000    -0.0027803700    -0.0001213600
         0.0000000000     0.0000000000     0.0000000000     -0.0010686200    -0.0018046400    -0.0000963000
         0.0000000000     0.0000000000     0.0000000000      0.0006796200     0.0051526400     0.0002672000
         0.0000000000     0.0000000000     0.0000000000      0.0015134500     0.0060409000     0.0002927600
         0.0000000000     0.0000000000     0.0000000000      0.0043365100    -0.0005986000     0.0001400400
         0.0000000000     0.0000000000     0.0000000000     -0.0001268700     0.0017523600     0.0000279300
         0.0000000000     0.0000000000     0.0000000000     -0.0033820600     0.0118768900    -0.0001713300
         0.0000000000     0.0000000000     0.0000000000     -0.0000190500     0.0100413600    -0.0009246300
         0.0000000000     0.0000000000     0.0000000000      0.0021086500    -0.0070625800    -0.0006884300
