CRYSTAL
PRIMVEC
     9.8639806455    0.0000000000    0.0000000000
     0.0000000000   29.9999950877    0.0000000000
     0.0000000000    0.0000000000   15.5000027228
PRIMCOORD
 47 1
         0.0000000000     0.0000000000     0.0000000000      0.0021717000    -0.0510512300    -0.0002083800
         0.0000000000     0.0000000000     0.0000000000      0.0016639300     0.0046283400     0.0003677300
         0.0000000000     0.0000000000     0.0000000000     -0.0029565700     0.0328738600     0.0000458500
         0.0000000000     0.0000000000     0.0000000000     -0.0016096400    -0.0007788900     0.0001834800
         0.0000000000     0.0000000000     0.0000000000      0.0015028700    -0.0498426500     0.0002076900
         0.0000000000     0.0000000000     0.0000000000     -0.0005258000     0.0040855800    -0.0003395500
         0.0000000000     0.0000000000     0.0000000000     -0.0003673200     0.0340239100    -0.0001072200
         0.0000000000     0.0000000000     0.0000000000     -0.0002914900    -0.0032334400     0.0000772200
         0.0000000000     0.0000000000     0.0000000000     -0.0024800200    -0.0491894400     0.0000805700
         0.0000000000     0.0000000000     0.0000000000     -0.0023135500     0.0022374600    -0.0001812200
         0.0000000000     0.0000000000     0.0000000000      0.0028812700     0.0329318800     0.0000716700
         0.0000000000     0.0000000000     0.0000000000      0.0009705200    -0.0042885300     0.0005907800
         0.0000000000     0.0000000000     0.0000000000     -0.0014456500    -0.0523183500    -0.0003289900
         0.0000000000     0.0000000000     0.0000000000      0.0010303100     0.0021115800     0.0006680600
         0.0000000000     0.0000000000     0.0000000000      0.0001864100     0.0324738300    -0.0000545100
         0.0000000000     0.0000000000     0.0000000000      0.0000790200    -0.0008458700    -0.0005218300
         0.0000000000     0.0000000000     0.0000000000     -0.0013518100    -0.0046836500    -0.0004084900
         0.0000000000     0.0000000000     0.0000000000      0.0016143300     0.0012925900     0.0051712900
         0.0000000000     0.0000000000     0.0000000000     -0.0028376100     0.0033289900     0.0009932300
         0.0000000000     0.0000000000     0.0000000000     -0.0024987900    -0.0008036600    -0.0004338700
         0.0000000000     0.0000000000     0.0000000000      0.0013992800    -0.0042083900     0.0022507300
         0.0000000000     0.0000000000     0.0000000000      0.0003216400     0.0014446900    -0.0025394500
         0.0000000000     0.0000000000     0.0000000000     -0.0013663300     0.0021433500     0.0026605000
         0.0000000000     0.0000000000     0.0000000000     -0.0008512400    -0.0008535000    -0.0057245200
         0.0000000000     0.0000000000     0.0000000000     -0.0010290100    -0.0010067600     0.0004029200
         0.0000000000     0.0000000000     0.0000000000     -0.0027338000     0.0040262300    -0.0022958100
         0.0000000000     0.0000000000     0.0000000000      0.0011772800     0.0021161300    -0.0000313900
         0.0000000000     0.0000000000     0.0000000000      0.0018632300    -0.0010822200    -0.0031202400
         0.0000000000     0.0000000000     0.0000000000     -0.0002063700    -0.0041621100    -0.0007103600
         0.0000000000     0.0000000000     0.0000000000      0.0026938500     0.0032459100     0.0058516700
         0.0000000000     0.0000000000     0.0000000000      0.0014090700     0.0020711000    -0.0042103600
         0.0000000000     0.0000000000     0.0000000000      0.0004757800    -0.0002826300    -0.0020238700
         0.0000000000     0.0000000000     0.0000000000      0.0000357400     0.0100198300     0.0000106200
         0.0000000000     0.0000000000     0.0000000000      0.0000177500     0.0099666900    -0.0000643100
         0.0000000000     0.0000000000     0.0000000000      0.0000827000     0.0100404300     0.0000267700
         0.0000000000     0.0000000000     0.0000000000      0.0001399300     0.0100193800     0.0000626800
         0.0000000000     0.0000000000     0.0000000000      0.0017350400     0.0076415600    -0.0000736500
         0.0000000000     0.0000000000     0.0000000000      0.0031638600    -0.0022552200     0.0006553000
         0.0000000000     0.0000000000     0.0000000000      0.0016406800    -0.0034135600    -0.0027212100
         0.0000000000     0.0000000000     0.0000000000      0.0001210300     0.0010423100    -0.0018076000
         0.0000000000     0.0000000000     0.0000000000     -0.0008076400     0.0043198300     0.0017757000
         0.0000000000     0.0000000000     0.0000000000     -0.0038675100     0.0024941600     0.0077986400
         0.0000000000     0.0000000000     0.0000000000      0.0071204800     0.0027534600     0.0015306600
         0.0000000000     0.0000000000     0.0000000000     -0.0006297100     0.0112048200     0.0014093500
         0.0000000000     0.0000000000     0.0000000000     -0.0034435100     0.0053590000    -0.0005308900
         0.0000000000     0.0000000000     0.0000000000     -0.0026276300    -0.0051193900    -0.0005196100
         0.0000000000     0.0000000000     0.0000000000      0.0007433300    -0.0004773900    -0.0039357800
