CRYSTAL
PRIMVEC
     9.8639806455    0.0000000000    0.0000000000
     0.0000000000   29.9999950877    0.0000000000
     0.0000000000    0.0000000000   15.5000027228
PRIMCOORD
 48 1
         0.0000000000     0.0000000000     0.0000000000      0.0049718700    -0.0442348800    -0.0008622300
         0.0000000000     0.0000000000     0.0000000000      0.0001212100    -0.0002860000     0.0000159700
         0.0000000000     0.0000000000     0.0000000000     -0.0028920100     0.0332319500     0.0005052400
         0.0000000000     0.0000000000     0.0000000000     -0.0002022300     0.0001082400     0.0000280100
         0.0000000000     0.0000000000     0.0000000000     -0.0008528800    -0.0437251600    -0.0007111000
         0.0000000000     0.0000000000     0.0000000000      0.0001045300    -0.0005493900     0.0000105100
         0.0000000000     0.0000000000     0.0000000000     -0.0007796500     0.0344325700     0.0003437700
         0.0000000000     0.0000000000     0.0000000000      0.0000464200     0.0001715000     0.0000400300
         0.0000000000     0.0000000000     0.0000000000     -0.0045425600    -0.0465856800    -0.0004704200
         0.0000000000     0.0000000000     0.0000000000     -0.0001416600    -0.0005910000    -0.0000059400
         0.0000000000     0.0000000000     0.0000000000      0.0027543400     0.0339811400     0.0004790300
         0.0000000000     0.0000000000     0.0000000000      0.0002021700     0.0001243600     0.0000333600
         0.0000000000     0.0000000000     0.0000000000      0.0002787700    -0.0513834900    -0.0007334500
         0.0000000000     0.0000000000     0.0000000000     -0.0000453500    -0.0003079800     0.0000032800
         0.0000000000     0.0000000000     0.0000000000      0.0006357900     0.0334520600     0.0003494900
         0.0000000000     0.0000000000     0.0000000000      0.0000069000     0.0002104900     0.0000288400
         0.0000000000     0.0000000000     0.0000000000      0.0000972900     0.0001128300     0.0000039700
         0.0000000000     0.0000000000     0.0000000000     -0.0001355600     0.0002632100    -0.0000266000
         0.0000000000     0.0000000000     0.0000000000     -0.0000311200    -0.0001863700     0.0000284800
         0.0000000000     0.0000000000     0.0000000000      0.0000560100     0.0004885800    -0.0001681800
         0.0000000000     0.0000000000     0.0000000000      0.0001854100     0.0001527900    -0.0001633400
         0.0000000000     0.0000000000     0.0000000000     -0.0003592000    -0.0003225500    -0.0003279900
         0.0000000000     0.0000000000     0.0000000000      0.0000007300    -0.0000503100     0.0000431500
         0.0000000000     0.0000000000     0.0000000000     -0.0003245600    -0.0004521300    -0.0022639800
         0.0000000000     0.0000000000     0.0000000000     -0.0001727300     0.0001644800    -0.0001081800
         0.0000000000     0.0000000000     0.0000000000      0.0005923900    -0.0003172300    -0.0001353200
         0.0000000000     0.0000000000     0.0000000000      0.0000264100    -0.0001274300    -0.0000085600
         0.0000000000     0.0000000000     0.0000000000      0.0009005300    -0.0002328900    -0.0001388400
         0.0000000000     0.0000000000     0.0000000000     -0.0000643300     0.0000740900     0.0000245500
         0.0000000000     0.0000000000     0.0000000000     -0.0002274600     0.0000167800     0.0000132500
         0.0000000000     0.0000000000     0.0000000000     -0.0000324000    -0.0003673000    -0.0000409800
         0.0000000000     0.0000000000     0.0000000000      0.0000033200     0.0001339600    -0.0001050600
         0.0000000000     0.0000000000     0.0000000000      0.0000417300     0.0099248100     0.0002297400
         0.0000000000     0.0000000000     0.0000000000     -0.0002005000     0.0099844900     0.0001627000
         0.0000000000     0.0000000000     0.0000000000      0.0000572400     0.0101092900     0.0001915400
         0.0000000000     0.0000000000     0.0000000000      0.0003821100     0.0100441600     0.0002075100
         0.0000000000     0.0000000000     0.0000000000      0.0014360200     0.0058884200    -0.0001327400
         0.0000000000     0.0000000000     0.0000000000      0.0024579500     0.0000996800    -0.0006167000
         0.0000000000     0.0000000000     0.0000000000      0.0002463000    -0.0051353900    -0.0002903900
         0.0000000000     0.0000000000     0.0000000000      0.0003894700    -0.0044358900    -0.0000567400
         0.0000000000     0.0000000000     0.0000000000     -0.0004308100     0.0022285800    -0.0000329700
         0.0000000000     0.0000000000     0.0000000000     -0.0061391200     0.0014836800    -0.0062644500
         0.0000000000     0.0000000000     0.0000000000      0.0023589100     0.0040668300    -0.0005626700
         0.0000000000     0.0000000000     0.0000000000     -0.0011320900    -0.0009936100    -0.0030195500
         0.0000000000     0.0000000000     0.0000000000      0.0009691100     0.0051416200    -0.0002890800
         0.0000000000     0.0000000000     0.0000000000     -0.0065730600    -0.0028506000    -0.0002618800
         0.0000000000     0.0000000000     0.0000000000     -0.0001564300    -0.0019090100     0.0021205600
         0.0000000000     0.0000000000     0.0000000000      0.0061127300     0.0089536700     0.0129343700
