CRYSTAL
PRIMVEC
     9.8639806455    0.0000000000    0.0000000000
     0.0000000000   29.9999950877    0.0000000000
     0.0000000000    0.0000000000   15.5000027228
PRIMCOORD
 49 1
         0.0000000000     0.0000000000     0.0000000000      0.0041091000    -0.0438623400     0.0016903800
         0.0000000000     0.0000000000     0.0000000000      0.0000630000    -0.0005098300     0.0000057300
         0.0000000000     0.0000000000     0.0000000000     -0.0003298700     0.0326974500    -0.0001443800
         0.0000000000     0.0000000000     0.0000000000     -0.0000842600     0.0000803300     0.0000259900
         0.0000000000     0.0000000000     0.0000000000     -0.0042805000    -0.0402003700     0.0003770600
         0.0000000000     0.0000000000     0.0000000000     -0.0000348200    -0.0005065800    -0.0000446500
         0.0000000000     0.0000000000     0.0000000000     -0.0005761700     0.0303713100    -0.0003940300
         0.0000000000     0.0000000000     0.0000000000      0.0000597500     0.0003340300    -0.0000713100
         0.0000000000     0.0000000000     0.0000000000     -0.0014116200    -0.0435701800    -0.0011651200
         0.0000000000     0.0000000000     0.0000000000     -0.0000120800    -0.0005342100     0.0000071700
         0.0000000000     0.0000000000     0.0000000000      0.0001148300     0.0334512700     0.0000911200
         0.0000000000     0.0000000000     0.0000000000      0.0000456100     0.0001428400    -0.0000106600
         0.0000000000     0.0000000000     0.0000000000      0.0015234100    -0.0512505500     0.0008465400
         0.0000000000     0.0000000000     0.0000000000     -0.0000319600    -0.0005078500     0.0000451700
         0.0000000000     0.0000000000     0.0000000000      0.0005376400     0.0326259800    -0.0006910700
         0.0000000000     0.0000000000     0.0000000000     -0.0000098200     0.0003078600     0.0000372300
         0.0000000000     0.0000000000     0.0000000000      0.0000690600     0.0001688100     0.0000800300
         0.0000000000     0.0000000000     0.0000000000     -0.0000799500    -0.0000167000     0.0000853300
         0.0000000000     0.0000000000     0.0000000000     -0.0000229600    -0.0001668600     0.0000095200
         0.0000000000     0.0000000000     0.0000000000      0.0000321500     0.0005230600     0.0001055500
         0.0000000000     0.0000000000     0.0000000000     -0.0004264800     0.0003027600    -0.0001512700
         0.0000000000     0.0000000000     0.0000000000     -0.0012014900    -0.0009292300    -0.0013544600
         0.0000000000     0.0000000000     0.0000000000      0.0000220100    -0.0005174900     0.0002904500
         0.0000000000     0.0000000000     0.0000000000     -0.0008828200    -0.0006539000    -0.0074487100
         0.0000000000     0.0000000000     0.0000000000      0.0003113400     0.0002887500    -0.0000822700
         0.0000000000     0.0000000000     0.0000000000      0.0013252500    -0.0006964200    -0.0010083400
         0.0000000000     0.0000000000     0.0000000000      0.0000041700    -0.0000612900    -0.0001032600
         0.0000000000     0.0000000000     0.0000000000      0.0007150100    -0.0002981000     0.0000420600
         0.0000000000     0.0000000000     0.0000000000     -0.0000299300     0.0001718100     0.0000546400
         0.0000000000     0.0000000000     0.0000000000     -0.0003135200    -0.0002049700    -0.0000162300
         0.0000000000     0.0000000000     0.0000000000     -0.0000511700    -0.0003150300    -0.0000622100
         0.0000000000     0.0000000000     0.0000000000      0.0000884900     0.0002602500    -0.0000128600
         0.0000000000     0.0000000000     0.0000000000      0.0000953400     0.0096858000    -0.0002163300
         0.0000000000     0.0000000000     0.0000000000     -0.0002015000     0.0098284500     0.0000299400
         0.0000000000     0.0000000000     0.0000000000      0.0000042200     0.0098770100     0.0000125800
         0.0000000000     0.0000000000     0.0000000000      0.0003920800     0.0098251000    -0.0003167000
         0.0000000000     0.0000000000     0.0000000000      0.0013689200     0.0058935400     0.0002500200
         0.0000000000     0.0000000000     0.0000000000      0.0030514400     0.0005011300    -0.0007637500
         0.0000000000     0.0000000000     0.0000000000      0.0002818400    -0.0051657300    -0.0006264500
         0.0000000000     0.0000000000     0.0000000000      0.0003932900    -0.0043884800    -0.0003390600
         0.0000000000     0.0000000000     0.0000000000     -0.0003398100     0.0019984000     0.0002809600
         0.0000000000     0.0000000000     0.0000000000     -0.0032952600    -0.0045890300     0.0070864900
         0.0000000000     0.0000000000     0.0000000000      0.0020659400     0.0040586500    -0.0003394700
         0.0000000000     0.0000000000     0.0000000000     -0.0004171600     0.0005330900     0.0003594800
         0.0000000000     0.0000000000     0.0000000000      0.0007309800     0.0052847400     0.0002500500
         0.0000000000     0.0000000000     0.0000000000     -0.0071113700    -0.0025052200    -0.0002623000
         0.0000000000     0.0000000000     0.0000000000      0.0001506500    -0.0025406000     0.0057820700
         0.0000000000     0.0000000000     0.0000000000      0.0096812100     0.0115556000     0.0042980300
         0.0000000000     0.0000000000     0.0000000000     -0.0060922200     0.0032229400    -0.0065187200
