CRYSTAL
PRIMVEC
     9.8639806455    0.0000000000    0.0000000000
     0.0000000000   29.9999950877    0.0000000000
     0.0000000000    0.0000000000   15.5000027228
PRIMCOORD
 50 1
         0.0000000000     0.0000000000     0.0000000000      0.0034352000    -0.0428657200     0.0001936500
         0.0000000000     0.0000000000     0.0000000000      0.0002787800    -0.0004992600     0.0000041700
         0.0000000000     0.0000000000     0.0000000000     -0.0001670100     0.0322619900    -0.0001931600
         0.0000000000     0.0000000000     0.0000000000     -0.0000102600     0.0000124000    -0.0000031800
         0.0000000000     0.0000000000     0.0000000000     -0.0029007100    -0.0431374300     0.0008127600
         0.0000000000     0.0000000000     0.0000000000      0.0000263100    -0.0005533000    -0.0000286600
         0.0000000000     0.0000000000     0.0000000000     -0.0008904800     0.0329047300    -0.0003697200
         0.0000000000     0.0000000000     0.0000000000      0.0000554800    -0.0000470500    -0.0000412100
         0.0000000000     0.0000000000     0.0000000000     -0.0022654300    -0.0458576800     0.0006591800
         0.0000000000     0.0000000000     0.0000000000     -0.0001573100    -0.0005687100     0.0000101100
         0.0000000000     0.0000000000     0.0000000000      0.0000685000     0.0331411600    -0.0001685900
         0.0000000000     0.0000000000     0.0000000000     -0.0000029500     0.0001641700    -0.0000190300
         0.0000000000     0.0000000000     0.0000000000      0.0016676100    -0.0495368200    -0.0000845500
         0.0000000000     0.0000000000     0.0000000000     -0.0001280700    -0.0004687900     0.0000000200
         0.0000000000     0.0000000000     0.0000000000      0.0007550300     0.0331704900    -0.0003223000
         0.0000000000     0.0000000000     0.0000000000     -0.0000795600     0.0005136800    -0.0000353600
         0.0000000000     0.0000000000     0.0000000000      0.0002682600    -0.0000072300    -0.0000183800
         0.0000000000     0.0000000000     0.0000000000      0.0002830500     0.0000670800    -0.0001551000
         0.0000000000     0.0000000000     0.0000000000     -0.0004222700    -0.0001637500    -0.0000029000
         0.0000000000     0.0000000000     0.0000000000      0.0001322000     0.0003667200    -0.0003050100
         0.0000000000     0.0000000000     0.0000000000     -0.0000246100     0.0005845700    -0.0000228300
         0.0000000000     0.0000000000     0.0000000000     -0.0008289800    -0.0001125300    -0.0001690100
         0.0000000000     0.0000000000     0.0000000000      0.0002393600    -0.0002836100    -0.0000372300
         0.0000000000     0.0000000000     0.0000000000     -0.0006798000     0.0001426600    -0.0048340600
         0.0000000000     0.0000000000     0.0000000000     -0.0001510600     0.0001889900     0.0001069000
         0.0000000000     0.0000000000     0.0000000000      0.0006430000     0.0003248300    -0.0001976100
         0.0000000000     0.0000000000     0.0000000000      0.0003991000    -0.0001232200    -0.0000968600
         0.0000000000     0.0000000000     0.0000000000      0.0002899800     0.0000020700    -0.0002087300
         0.0000000000     0.0000000000     0.0000000000     -0.0001251400    -0.0002400000    -0.0000063100
         0.0000000000     0.0000000000     0.0000000000     -0.0002216700     0.0002053600    -0.0000449000
         0.0000000000     0.0000000000     0.0000000000     -0.0002050300    -0.0004193000    -0.0000347300
         0.0000000000     0.0000000000     0.0000000000     -0.0001903300     0.0005848600    -0.0000885600
         0.0000000000     0.0000000000     0.0000000000      0.0001435600     0.0100082400    -0.0001025700
         0.0000000000     0.0000000000     0.0000000000     -0.0002004300     0.0101186200    -0.0001906100
         0.0000000000     0.0000000000     0.0000000000     -0.0000391700     0.0101630300    -0.0000792800
         0.0000000000     0.0000000000     0.0000000000      0.0003897300     0.0100291000    -0.0000256600
         0.0000000000     0.0000000000     0.0000000000      0.0017539000     0.0061317000     0.0000159600
         0.0000000000     0.0000000000     0.0000000000      0.0049192100     0.0004152700    -0.0010495500
         0.0000000000     0.0000000000     0.0000000000      0.0005404000    -0.0071460300    -0.0019503400
         0.0000000000     0.0000000000     0.0000000000      0.0005407900    -0.0046855700    -0.0003522100
         0.0000000000     0.0000000000     0.0000000000     -0.0001323400     0.0016333100    -0.0000227300
         0.0000000000     0.0000000000     0.0000000000      0.0080043000     0.0058053900    -0.0004173000
         0.0000000000     0.0000000000     0.0000000000      0.0017857300     0.0039116800    -0.0002899100
         0.0000000000     0.0000000000     0.0000000000     -0.0027508900    -0.0004093400     0.0001225300
         0.0000000000     0.0000000000     0.0000000000      0.0000148100     0.0052038100     0.0000841400
         0.0000000000     0.0000000000     0.0000000000     -0.0058092200    -0.0024305200    -0.0005412500
         0.0000000000     0.0000000000     0.0000000000     -0.0003407600    -0.0051524800     0.0015717400
         0.0000000000     0.0000000000     0.0000000000     -0.0023282200     0.0062795600     0.0064186200
         0.0000000000     0.0000000000     0.0000000000     -0.0027217300     0.0031326100     0.0092142600
         0.0000000000     0.0000000000     0.0000000000     -0.0028608100    -0.0027597200    -0.0067046300
