CRYSTAL
PRIMVEC
 8.54286592742127 0.00000000000000 0.00000000000000
 0.00000000000000 29.99999936305714 0.00000000000000
 0.00000000000000 0.00000000000000 15.49999653852868
PRIMCOORD
 39 1
  6     1.42374298100000     2.99499287600000     5.00000000000000     0.00000000000000     0.00000000000000     0.00000000000000
  6     2.84748596200000     2.99499287600000     5.00000000000000     0.00000000000000     0.00000000000000     0.00000000000000
  6     0.71187149100000     4.22799046600000     5.00000000000000     0.00000000000000     0.00000000000000     0.00000000000000
  6     3.55935745300000     4.22799046600000     5.00000000000000     0.00000000000000     0.00000000000000     0.00000000000000
  6     1.42345834100000     5.45881603800000     4.99999992500000    -0.00000342040403     0.00000979822923    -0.00000098265751
  6     2.84765107900000     5.45881859900000     5.00000018500000     0.00000571642110     0.00000218263351    -0.00000100155477
  6     0.71084991400000     6.69827658800000     4.99998375200000    -0.00002227986935    -0.00001076198948    -0.00000017952397
  6     3.56018573500000     6.69829230700000     4.99998395700000    -0.00001050687647    -0.00000268341090    -0.00000008503767
  6     1.42415256500000     7.94179948600000     4.99999574000000    -0.00002664513637    -0.00000219208214     0.00000045353424
  6     2.84685427900000     7.94180787100000     4.99999608800000     0.00003945747854    -0.00000559358891     0.00000039684246
  6     0.72045277000000     9.17733872500000     5.00002189100000    -0.00001038404428    -0.00000196531502     0.00000030235616
  6     3.55056644700000     9.17734121600000     5.00002217100000    -0.00001216038671    -0.00000496053071     0.00000038739383
  6     1.38946691300000    10.45328802100000     5.00010811500000     0.00000524398961    -0.00002642781788     0.00000049132876
  6     2.88154639700000    10.45328867700000     5.00010800000000    -0.00000068974998    -0.00002120272554     0.00000046298287
  6     5.69497192400000     2.99499287600000     5.00000000000000     0.00000000000000     0.00000000000000     0.00000000000000
  6     7.11871490500000     2.99499287600000     5.00000000000000     0.00000000000000     0.00000000000000     0.00000000000000
  6     4.98310043400000     4.22799046600000     5.00000000000000     0.00000000000000     0.00000000000000     0.00000000000000
  6     7.83058639500000     4.22799046600000     5.00000000000000     0.00000000000000     0.00000000000000     0.00000000000000
  6     5.69476451000000     5.45192104400000     4.99997941300000    -0.00000340150677    -0.00000372276019    -0.00000032125342
  6     7.11903846000000     5.45192092900000     4.99997930300000    -0.00000175744516    -0.00000275899994    -0.00000039684246
  6     4.97823788700000     6.68586080800000     4.99996316200000     0.00001504221883     0.00003067970135     0.00000004724315
  6     7.83563540900000     6.68584224400000     4.99996308500000     0.00001678076674     0.00003580085876     0.00000007558904
  6     5.69549561500000     7.91257099500000     4.99994489300000    -0.00000251333556     0.00003530953001     0.00000124721915
  6     7.11839950300000     7.91256636000000     4.99994473800000    -0.00001032735250     0.00002243104743     0.00000136060271
  6     4.97425420700000     9.14264019100000     4.99998802500000     0.00001064860592     0.00001599653045     0.00000139839723
  6     7.83962318800000     9.14263255700000     4.99998757900000     0.00001396507502     0.00003690634846     0.00000147398627
  6     5.70059256000000    10.33337484800000     5.00006084400000     0.00001538236951     0.00001178244151     0.00000097320888
  6     7.11328843100000    10.33337494100000     5.00006064900000    -0.00001515560239    -0.00000157792120     0.00000103934929
  1     0.90511317300000     2.02921292800000     5.00000000000000     0.00000000000000     0.00000000000000     0.00000000000000
  1     3.36611577100000     2.02921292800000     5.00000000000000     0.00000000000000     0.00000000000000     0.00000000000000
  1     5.17634211700000     2.02921292800000     5.00000000000000     0.00000000000000     0.00000000000000     0.00000000000000
  1     7.63734470500000     2.02921292800000     5.00000000000000     0.00000000000000     0.00000000000000     0.00000000000000
  6     3.64921628500000    11.67788998900000     5.00022784600000    -0.00000514950331    -0.00002360267754     0.00000035904794
  6     0.62179846100000    11.67788832500000     5.00022815000000     0.00000233381159    -0.00002409400629     0.00000037794520
  6     5.15909469400000    11.68043213500000     5.00024877300000    -0.00000335426362     0.00000791795187    -0.00000119997600
  1     6.40696129300000    13.60392560500000     5.00067558700000    -0.00000220153077     0.00000973208882    -0.00000594318822
  6     6.40694513600000    12.50984335800000     5.00039559100000    -0.00000141729449    -0.00006961750524    -0.00000193696913
  6     7.65478854200000    11.68042591600000     5.00024897100000     0.00000575421562     0.00000899509568    -0.00000121887326
 78     2.13549993700000    13.05442871400000     5.00031917900000     0.00000238105474     0.00001514615376     0.00000257947597
