CRYSTAL
PRIMVEC
     8.5428654021    0.0000000000    0.0000000000
     0.0000000000   29.9999975181    0.0000000000
     0.0000000000    0.0000000000   15.4999955853
PRIMCOORD
 46 1
         0.0000000000     0.0000000000     0.0000000000      0.0857897800     0.0091849800    -0.0003057400
         0.0000000000     0.0000000000     0.0000000000     -0.0860324900     0.0092802500    -0.0003340300
         0.0000000000     0.0000000000     0.0000000000      0.0180205400    -0.0251588600    -0.0001741400
         0.0000000000     0.0000000000     0.0000000000     -0.0185912000    -0.0238992700     0.0001376300
         0.0000000000     0.0000000000     0.0000000000      0.0001641300    -0.0001648300    -0.0000104100
         0.0000000000     0.0000000000     0.0000000000     -0.0001646200    -0.0001787400     0.0000023000
         0.0000000000     0.0000000000     0.0000000000     -0.0002114900     0.0000308000    -0.0000216400
         0.0000000000     0.0000000000     0.0000000000      0.0001988000     0.0000324700    -0.0000642300
         0.0000000000     0.0000000000     0.0000000000     -0.0000062600     0.0002654400    -0.0002912400
         0.0000000000     0.0000000000     0.0000000000      0.0000703500     0.0001971800     0.0000419800
         0.0000000000     0.0000000000     0.0000000000      0.0001564800    -0.0003369300    -0.0004238800
         0.0000000000     0.0000000000     0.0000000000     -0.0000686700    -0.0002149100    -0.0000914400
         0.0000000000     0.0000000000     0.0000000000      0.0013398700    -0.0008342700    -0.0011407900
         0.0000000000     0.0000000000     0.0000000000     -0.0003688900    -0.0003968400     0.0000735000
         0.0000000000     0.0000000000     0.0000000000      0.0870595200     0.0089853100    -0.0007812000
         0.0000000000     0.0000000000     0.0000000000     -0.0867207500     0.0086901700    -0.0002394600
         0.0000000000     0.0000000000     0.0000000000      0.0193087600    -0.0206141000     0.0012078300
         0.0000000000     0.0000000000     0.0000000000     -0.0188975200    -0.0215348900     0.0010791100
         0.0000000000     0.0000000000     0.0000000000      0.0001697500    -0.0001604300     0.0000445800
         0.0000000000     0.0000000000     0.0000000000     -0.0001555500    -0.0001406600    -0.0000769400
         0.0000000000     0.0000000000     0.0000000000     -0.0002027800    -0.0000239100    -0.0000120100
         0.0000000000     0.0000000000     0.0000000000      0.0002366700     0.0000177600     0.0000267900
         0.0000000000     0.0000000000     0.0000000000     -0.0000686300     0.0000774900     0.0000174400
         0.0000000000     0.0000000000     0.0000000000      0.0000353900     0.0001377600    -0.0000609400
         0.0000000000     0.0000000000     0.0000000000      0.0000758500    -0.0002969700    -0.0003676000
         0.0000000000     0.0000000000     0.0000000000     -0.0001205200    -0.0003152000     0.0000164600
         0.0000000000     0.0000000000     0.0000000000      0.0002925100     0.0000899000    -0.0000352600
         0.0000000000     0.0000000000     0.0000000000     -0.0006324300    -0.0001112300    -0.0006903800
         0.0000000000     0.0000000000     0.0000000000      0.0083109100     0.0111136700    -0.0000250300
         0.0000000000     0.0000000000     0.0000000000     -0.0083216000     0.0111401400    -0.0000250300
         0.0000000000     0.0000000000     0.0000000000      0.0083351400     0.0111597900    -0.0001831500
         0.0000000000     0.0000000000     0.0000000000     -0.0083340400     0.0111546100    -0.0000727200
         0.0000000000     0.0000000000     0.0000000000      0.0005300900     0.0051556700    -0.0026033500
         0.0000000000     0.0000000000     0.0000000000     -0.0016202000     0.0011357100    -0.0015468100
         0.0000000000     0.0000000000     0.0000000000      0.0004835400     0.0013691000     0.0014591100
         0.0000000000     0.0000000000     0.0000000000      0.0065474600     0.0041435100     0.0017736600
         0.0000000000     0.0000000000     0.0000000000     -0.0018956400     0.0053594600    -0.0007393900
         0.0000000000     0.0000000000     0.0000000000     -0.0031760200    -0.0037498600     0.0007655300
         0.0000000000     0.0000000000     0.0000000000     -0.0032387700    -0.0039520100    -0.0014575700
         0.0000000000     0.0000000000     0.0000000000     -0.0005742900     0.0062591100     0.0068279400
         0.0000000000     0.0000000000     0.0000000000     -0.0026802700    -0.0040443400     0.0040053100
         0.0000000000     0.0000000000     0.0000000000     -0.0000711200     0.0012507700    -0.0001733200
         0.0000000000     0.0000000000     0.0000000000      0.0031621700    -0.0040026800    -0.0002650800
         0.0000000000     0.0000000000     0.0000000000      0.0017422300     0.0015116700    -0.0083580700
         0.0000000000     0.0000000000     0.0000000000      0.0000803000    -0.0011748000    -0.0016344200
         0.0000000000     0.0000000000     0.0000000000      0.0000435300     0.0035630100     0.0047260800
