CRYSTAL
PRIMVEC
     8.5428654021    0.0000000000    0.0000000000
     0.0000000000   29.9999975181    0.0000000000
     0.0000000000    0.0000000000   15.4999955853
PRIMCOORD
 47 1
         0.0000000000     0.0000000000     0.0000000000      0.0828713900     0.0114359300    -0.0006769600
         0.0000000000     0.0000000000     0.0000000000     -0.0830469300     0.0111900100    -0.0004354800
         0.0000000000     0.0000000000     0.0000000000      0.0224476100    -0.0250136800     0.0008319800
         0.0000000000     0.0000000000     0.0000000000     -0.0210776200    -0.0254127000     0.0009389000
         0.0000000000     0.0000000000     0.0000000000      0.0001321800    -0.0001911000     0.0000516700
         0.0000000000     0.0000000000     0.0000000000     -0.0002748300    -0.0002319200    -0.0000236700
         0.0000000000     0.0000000000     0.0000000000     -0.0005379400    -0.0000332900    -0.0000697200
         0.0000000000     0.0000000000     0.0000000000      0.0003079300    -0.0000146200     0.0000041800
         0.0000000000     0.0000000000     0.0000000000     -0.0001648500     0.0002058200    -0.0004545300
         0.0000000000     0.0000000000     0.0000000000     -0.0000506900     0.0002783700    -0.0000216100
         0.0000000000     0.0000000000     0.0000000000     -0.0003911900    -0.0004615600    -0.0006468200
         0.0000000000     0.0000000000     0.0000000000      0.0001684400    -0.0007189100    -0.0000452200
         0.0000000000     0.0000000000     0.0000000000      0.0016804800    -0.0010820700    -0.0011033800
         0.0000000000     0.0000000000     0.0000000000     -0.0007022600     0.0000026000    -0.0002383700
         0.0000000000     0.0000000000     0.0000000000      0.0836411300     0.0113110300    -0.0005130900
         0.0000000000     0.0000000000     0.0000000000     -0.0838717200     0.0108270900    -0.0006195400
         0.0000000000     0.0000000000     0.0000000000      0.0233307900    -0.0227027300     0.0005512600
         0.0000000000     0.0000000000     0.0000000000     -0.0201911800    -0.0223499000     0.0015453400
         0.0000000000     0.0000000000     0.0000000000      0.0001229100    -0.0002610500    -0.0000327400
         0.0000000000     0.0000000000     0.0000000000     -0.0002507100    -0.0002490200     0.0000717700
         0.0000000000     0.0000000000     0.0000000000     -0.0003254200    -0.0000704100     0.0002470500
         0.0000000000     0.0000000000     0.0000000000      0.0002006900    -0.0000088000     0.0001324300
         0.0000000000     0.0000000000     0.0000000000     -0.0002952000     0.0000255800     0.0001989300
         0.0000000000     0.0000000000     0.0000000000      0.0000390400     0.0000170900     0.0000349600
         0.0000000000     0.0000000000     0.0000000000     -0.0003862100    -0.0004302200    -0.0004864600
         0.0000000000     0.0000000000     0.0000000000     -0.0001382800    -0.0006112600    -0.0001925700
         0.0000000000     0.0000000000     0.0000000000      0.0001707800     0.0000917500    -0.0003208400
         0.0000000000     0.0000000000     0.0000000000     -0.0007044200     0.0001833300    -0.0008912600
         0.0000000000     0.0000000000     0.0000000000      0.0083087400     0.0111354100    -0.0000924200
         0.0000000000     0.0000000000     0.0000000000     -0.0083226300     0.0111505300    -0.0001069900
         0.0000000000     0.0000000000     0.0000000000      0.0083055800     0.0111742000    -0.0000768600
         0.0000000000     0.0000000000     0.0000000000     -0.0082697200     0.0112118100    -0.0001589500
         0.0000000000     0.0000000000     0.0000000000      0.0008767800     0.0052092200    -0.0022265900
         0.0000000000     0.0000000000     0.0000000000     -0.0020519200     0.0009143700    -0.0020437800
         0.0000000000     0.0000000000     0.0000000000      0.0009369500     0.0007840600     0.0012583100
         0.0000000000     0.0000000000     0.0000000000      0.0061791400     0.0045890400     0.0015175300
         0.0000000000     0.0000000000     0.0000000000     -0.0016680900     0.0051168400    -0.0010869300
         0.0000000000     0.0000000000     0.0000000000     -0.0034047200    -0.0041029800     0.0001457700
         0.0000000000     0.0000000000     0.0000000000     -0.0028173300    -0.0049220200    -0.0025976000
         0.0000000000     0.0000000000     0.0000000000      0.0001057000    -0.0025189900     0.0030083500
         0.0000000000     0.0000000000     0.0000000000     -0.0035805900    -0.0043323200     0.0034368000
         0.0000000000     0.0000000000     0.0000000000     -0.0001933700     0.0010630300    -0.0003225300
         0.0000000000     0.0000000000     0.0000000000      0.0031820000    -0.0040495500     0.0001690400
         0.0000000000     0.0000000000     0.0000000000      0.0007341900     0.0028758700    -0.0080267800
         0.0000000000     0.0000000000     0.0000000000     -0.0012473700     0.0055591300     0.0064723700
         0.0000000000     0.0000000000     0.0000000000     -0.0041611300     0.0099808300     0.0017048800
         0.0000000000     0.0000000000     0.0000000000      0.0043838700    -0.0065638600     0.0011901900
