CRYSTAL
PRIMVEC
 8.54286592742127 0.00000000000000 0.00000000000000
 0.00000000000000 29.99999936305714 0.00000000000000
 0.00000000000000 0.00000000000000 15.49999653852868
PRIMCOORD
 40 1
  6     1.42374298100000     2.99499287600000     5.00000000000000     0.00000000000000     0.00000000000000     0.00000000000000
  6     2.84748596200000     2.99499287600000     5.00000000000000     0.00000000000000     0.00000000000000     0.00000000000000
  6     0.71187149100000     4.22799046600000     5.00000000000000     0.00000000000000     0.00000000000000     0.00000000000000
  6     3.55935745300000     4.22799046600000     5.00000000000000     0.00000000000000     0.00000000000000     0.00000000000000
  6     1.42333951200000     5.46272083600000     5.00000320200000    -0.00001131945864     0.00000000944863     0.00000022676712
  6     2.84682011300000     5.45559863800000     5.00000485900000    -0.00001850986601    -0.00001486269486     0.00000009448630
  6     0.71256178900000     6.70974253100000     5.00000054300000    -0.00001220762986     0.00001955866393     0.00000007558904
  6     3.56050070300000     6.69372560900000     5.00000344700000     0.00000111493833     0.00000487549304    -0.00000025511301
  6     1.42394790700000     7.95838890100000     5.00000675100000    -0.00002670182815     0.00000042518835    -0.00000020786986
  6     2.84630755500000     7.92989353200000     5.00000580000000     0.00001204700315    -0.00002491603710    -0.00000042518835
  6     0.74985420000000     9.21672548600000     5.00000872200000     0.00000590539370     0.00001219818123     0.00000017952397
  6     3.55400883200000     9.15486572800000     5.00000194000000     0.00000368496567    -0.00001488159212    -0.00000024566438
  6     1.47335668700000    10.49220332700000     5.00002170200000     0.00001165960932    -0.00001164071206    -0.00000006614041
  6     2.91272917800000    10.43900054700000     5.00001472100000     0.00001899174614    -0.00000123777052    -0.00000022676712
  6     5.69497192400000     2.99499287600000     5.00000000000000     0.00000000000000     0.00000000000000     0.00000000000000
  6     7.11871490500000     2.99499287600000     5.00000000000000     0.00000000000000     0.00000000000000     0.00000000000000
  6     4.98310043400000     4.22799046600000     5.00000000000000     0.00000000000000     0.00000000000000     0.00000000000000
  6     7.83058639500000     4.22799046600000     5.00000000000000     0.00000000000000     0.00000000000000     0.00000000000000
  6     5.69833450700000     5.44465650200000     4.99999788600000    -0.00000607546904     0.00000633058205    -0.00000002834589
  6     7.12134317500000     5.45048925200000     4.99999922000000     0.00001924685915     0.00001566582841    -0.00000003779452
  6     4.98280240500000     6.67530437800000     4.99999279700000     0.00001789570507     0.00000969429430    -0.00000027401027
  6     7.83798637800000     6.69064939900000     4.99999399900000    -0.00000433692113    -0.00000696364025     0.00000012283219
  6     5.69825249800000     7.89436605000000     4.99997867400000     0.00001151787987     0.00002537901996    -0.00000007558904
  6     7.13319146500000     7.91740096800000     4.99998219900000     0.00002534122544     0.00002675851993     0.00000016062671
  6     4.95904121100000     9.09384539100000     4.99997941100000     0.00003591424232    -0.00001138559905     0.00000015117808
  6     7.86387609900000     9.15669573400000     4.99999150000000     0.00001696973933     0.00001205645178     0.00000005669178
  6     5.67422772500000    10.29473633300000     4.99997979400000     0.00003086867395    -0.00000627389027    -0.00000007558904
  6     7.06430945400000    10.29403163100000     4.99998976900000     0.00001315249285     0.00000661404094    -0.00000009448630
  1     0.90511317300000     2.02921292800000     5.00000000000000     0.00000000000000     0.00000000000000     0.00000000000000
  1     3.36611577100000     2.02921292800000     5.00000000000000     0.00000000000000     0.00000000000000     0.00000000000000
  1     5.17634211700000     2.02921292800000     5.00000000000000     0.00000000000000     0.00000000000000     0.00000000000000
  1     7.63734470500000     2.02921292800000     5.00000000000000     0.00000000000000     0.00000000000000     0.00000000000000
  1     1.16582354800000    13.92606349100000     5.00005139900000    -0.00002686245486    -0.00002797739319     0.00000055746917
  6     3.02931274000000    12.88591092600000     5.00003459700000    -0.00002760889662     0.00000460148277     0.00000013228082
  1     3.62352362800000    13.80828063300000     5.00003707900000    -0.00000563138343     0.00003575361561     0.00000071809587
  6     5.16450550300000    11.61723732600000     5.00001054000000    -0.00000582980466     0.00000567862658    -0.00000004724315
  6     1.64614578400000    12.93658893000000     5.00004238400000    -0.00000139839723    -0.00000776677379     0.00000037794520
  6     0.82039089700000    11.78629295600000     5.00003833800000     0.00000094486299    -0.00001919016737     0.00000013228082
  6     3.72557634800000    11.65542730000000     5.00002332800000     0.00000138894860     0.00001920906463    -0.00000010393493
 78     7.39612209400000    12.13246537600000     5.00004111900000     0.00000144564038    -0.00000260782186     0.00000005669178
