CRYSTAL
PRIMVEC
 8.54286539824406 0.00000000000000 0.00000000000000
 0.00000000000000 29.99999750474448 0.00000000000000
 0.00000000000000 0.00000000000000 15.49999557840067
PRIMCOORD
 42 1
  6     1.42374284154634     2.99499277706454     4.99999986888626     0.07695104045795     0.01207458369752     0.00004222592711
  6     2.84748568309268     2.99499277706454     4.99999986888626    -0.07714902704928     0.01261527209601     0.00003412845127
  6     0.71187184791644     4.22799051999888     4.99999986888626     0.02168807331139    -0.01688412529891    -0.00004913287558
  6     3.55935753100911     4.22799051999888     4.99999986888626    -0.02398342897763    -0.02143950820411    -0.00004883051942
  6     1.42346605270743     5.46202707536565     4.99954538844707     0.00011006708993    -0.00014971354107     0.00001112103741
  6     2.84672109663953     5.45508001722380     4.99956845418365    -0.00018835843744    -0.00004066690317     0.00002424518437
  6     0.71273040588896     6.70835083403472     4.99845446453572     0.00010567347701     0.00007479535444     0.00001575086608
  6     3.56090378964620     6.69319322795861     4.99850059600887    -0.00006660339230     0.00004612821126     0.00002925295823
  6     1.42454587089377     7.95499067872352     5.00136929020960    -0.00004362432434    -0.00023642361783     0.00000999665045
  6     2.84784192057978     7.92793029828804     5.00137783307500     0.00010573016879    -0.00009497762795     0.00001953976667
  6     0.74292174649290     9.20791038376657     5.00205357372800    -0.00021438941286    -0.00006337196087     0.00002037124611
  6     3.55829736141319     9.15391862016313     5.00170758767937     0.00032343605076     0.00009271940540     0.00003080253354
  6     1.46296313658968    10.48147648590409     5.01275778407200     0.00058817721246    -0.00009450519645     0.00002861990002
  6     2.90666211170631    10.43125041736820     5.00965757821897    -0.00029602557536     0.00038867884035     0.00001920906463
  6     5.69497136618535     2.99499277706454     4.99999986888626     0.07766038690049     0.00842727081932     0.00008472586448
  6     7.11871506201823     2.99499277706454     4.99999986888626    -0.07894622260029     0.01048314151162     0.00005551070077
  6     4.98310037255545     4.22799051999888     4.99999986888626     0.02213946270852    -0.03321798128860    -0.00018444670465
  6     7.83058605564813     4.22799051999888     4.99999986888626    -0.01849090261117    -0.02413800856310    -0.00017271150629
  6     5.69900787008602     5.44439032975098     4.99787696683480     0.00022092786477    -0.00015569452381    -0.00003082143080
  6     7.12189471651946     5.45164663962025     4.99807857845819    -0.00017097295839    -0.00010721360369    -0.00001300131477
  6     4.98393330193178     6.67466119005020     4.99547471308481    -0.00005535952270     0.00016832734201     0.00002012558173
  6     7.83756813953811     6.69361780836891     4.99605306507227     0.00007682680987     0.00016834623927    -0.00001903898929
  6     5.69977331082571     7.89244152685065     4.99107342883163    -0.00016882811939    -0.00009470361768     0.00003179463968
  6     7.13466032028405     7.92288829913000     4.99134082051860     0.00017424218434     0.00012343690126    -0.00004504161882
  6     4.96610092469949     9.09237581783418     4.99303572501361     0.00014775767467    -0.00016434946881    -0.00000492273619
  6     7.85743628159481     9.16726770163442     4.99070437704643     0.00025516025096    -0.00042296791833    -0.00001107379427
  6     5.69724035123513    10.28621990007529     4.99176027520965    -0.00129398986741     0.00008673842266    -0.00001984212283
  6     7.09768423598083    10.34317603797192     4.98421350791684    -0.00174378244608    -0.00253974447909     0.00002404676314
  1     0.90511317179780     2.02921244664111     4.99999986888626     0.00780062823446     0.01086056703374     0.00000657624642
  1     3.36611535284121     2.02921244664111     4.99999986888626    -0.00787869281485     0.01046772134760     0.00000300466431
  1     5.17634169643681     2.02921244664111     4.99999986888626     0.00821662306390     0.01029548227280     0.00002192082141
  1     7.63734473176677     2.02921244664111     4.99999986888626    -0.00794551352564     0.01051729830878     0.00001947362626
  1     1.14010433316692    13.90841874895388     5.00341872361864     0.00294661193203    -0.00381403395312     0.00000881557171
  6     3.01303189163947    12.87821581627576     5.00959777816119     0.00159075243591     0.00592326105858    -0.00007463472773
  1     3.59639854108936    13.80742926564854     4.99766852091908    -0.00283526927707    -0.00348494762167     0.00004821635848
  6     5.14180118305863    11.56628199706164     5.01092277658445    -0.00129333791195    -0.00202361306976    -0.00002737268088
  6     1.62839145359397    12.92824454462096     5.01146524853724    -0.00024452109368     0.00534553403081    -0.00010323573050
  6     0.81076064062035    11.76516844639816     5.02267263365320     0.00365229230617     0.00027313154507    -0.00002047518103
  6     3.71296508516186    11.65115536479319     5.01382735081986     0.00090252368124     0.00087824070235     0.00001804688315
 78     7.39603526714911    12.25490187393714     5.03310005515830    -0.00054232301146    -0.00058881971930    -0.00006423178619
  8     7.04646463219912    14.20953937708427     5.04535992129132    -0.00435904982411     0.01247190803425     0.00793625386832
  1     6.77134250633521    14.49944322294676     5.94775304474631     0.00225383838637    -0.00202719410050    -0.00767498035379
