CRYSTAL
PRIMVEC
 8.54286592742127 0.00000000000000 0.00000000000000
 0.00000000000000 20.00000242299340 0.00000000000000
 0.00000000000000 0.00000000000000 15.49999653852868
PRIMCOORD
 42 1
  6     1.42374298100000     2.99499287600000     5.00000000000000     0.00000000000000     0.00000000000000     0.00000000000000
  6     2.84748596200000     2.99499287600000     5.00000000000000     0.00000000000000     0.00000000000000     0.00000000000000
  6     0.71187149100000     4.22799046600000     5.00000000000000     0.00000000000000     0.00000000000000     0.00000000000000
  6     3.55935745300000     4.22799046600000     5.00000000000000     0.00000000000000     0.00000000000000     0.00000000000000
  6     1.42340879600000     5.45458778600000     5.00002194600000     0.00000210704447     0.00000445975332    -0.00000001889726
  6     2.84595264100000     5.45141405100000     5.00002364000000    -0.00001521229417    -0.00000889116075     0.00000004724315
  6     0.70996146000000     6.69479020000000     5.00004740800000    -0.00001425798255     0.00001000609908    -0.00000030235616
  6     3.56067173500000     6.68659038600000     5.00004322500000    -0.00000073699313    -0.00000567862658     0.00000004724315
  6     1.41981067300000     7.92604160300000     5.00005449900000    -0.00001519339691    -0.00000140784586    -0.00000000000000
  6     2.84982472000000     7.91447080200000     5.00005024800000     0.00001288793121    -0.00000911792787    -0.00000004724315
  6     0.69984520000000     9.16059603400000     5.00004174700000     0.00000082203080     0.00000419519168    -0.00000013228082
  6     3.56744438900000     9.13988204000000     5.00003638400000     0.00000542351357    -0.00001272730450     0.00000005669178
  6     1.41327763900000    10.38998175400000     5.00001171000000    -0.00001293517436    -0.00001910512970     0.00000012283219
  6     2.85207903900000    10.36017871200000     5.00000744100000     0.00002460423231     0.00000726599641    -0.00000006614041
  6     5.69497192400000     2.99499287600000     5.00000000000000     0.00000000000000     0.00000000000000     0.00000000000000
  6     7.11871490500000     2.99499287600000     5.00000000000000     0.00000000000000     0.00000000000000     0.00000000000000
  6     4.98310043400000     4.22799046600000     5.00000000000000     0.00000000000000     0.00000000000000     0.00000000000000
  6     7.83058639500000     4.22799046600000     5.00000000000000     0.00000000000000     0.00000000000000     0.00000000000000
  6     5.69626892300000     5.45503454700000     5.00002653900000    -0.00001191472233     0.00002128776321     0.00000023621575
  6     7.11933943900000     5.45714798600000     5.00002752500000     0.00002176019470     0.00000509281153    -0.00000022676712
  6     4.98251419300000     6.69107219400000     5.00004462800000     0.00001622329757     0.00000373220882     0.00000009448630
  6     7.83174777900000     6.69747762600000     5.00004793600000     0.00000905178746     0.00002662623911    -0.00000017007534
  6     5.69703411100000     7.92391358600000     5.00005015600000     0.00001483434897    -0.00000503611975    -0.00000003779452
  6     7.11887257600000     7.93164717300000     5.00005383500000     0.00001177299288     0.00000104879792    -0.00000017952397
  6     4.99171664100000     9.15773736700000     5.00003581800000     0.00000846597241     0.00001019507168    -0.00000044408561
  6     7.82405459500000     9.17365555300000     5.00003993900000    -0.00001302021203    -0.00002611601310    -0.00000001889726
  6     5.69675908400000    10.40096869600000     5.00000532500000    -0.00000073699313    -0.00002485934532    -0.00000037794520
  6     7.12850131600000    10.42171987900000     5.00000788700000    -0.00001729099275     0.00000694474299     0.00000009448630
  1     0.90511317300000     2.02921292800000     5.00000000000000     0.00000000000000     0.00000000000000     0.00000000000000
  1     3.36611577100000     2.02921292800000     5.00000000000000     0.00000000000000     0.00000000000000     0.00000000000000
  1     5.17634211700000     2.02921292800000     5.00000000000000     0.00000000000000     0.00000000000000     0.00000000000000
  1     7.63734470500000     2.02921292800000     5.00000000000000     0.00000000000000     0.00000000000000     0.00000000000000
  1     7.54273744500000    13.85347812700000     4.99993961400000    -0.00001514615376     0.00000699198614    -0.00000051967465
  6     7.03242883300000    12.88618483000000     4.99995074300000     0.00002664513637    -0.00000523454098    -0.00000010393493
  6     3.51170383700000    11.59527589500000     4.99997609600000     0.00000038739383     0.00002662623911     0.00000016062671
  6     4.92850348800000    11.62676621100000     4.99997004000000     0.00002374440699     0.00001525953732    -0.00000000944863
  6     7.86175313100000    11.68585315700000     4.99997624000000    -0.00000671797587    -0.00004075194084     0.00000020786986
 78     2.18701196000000    13.13224514300000     4.99996889700000    -0.00004719590645     0.00001219818123    -0.00000006614041
  6     0.74511463500000    11.64186084600000     4.99998260900000    -0.00002576641379    -0.00001337925997     0.00000038739383
  6     5.66964781700000    12.83385705800000     4.99994359600000     0.00003049072875    -0.00000039684246    -0.00000027401027
  6     1.11545269900000    14.70793830200000     4.99994988000000    -0.00002108934198     0.00009168950473     0.00000029290753
  8     0.65655657400000    15.77078529300000     4.99992939700000     0.00002022006803    -0.00008786280962     0.00000034015068
