CRYSTAL
PRIMVEC
     9.8639806455    0.0000000000    0.0000000000
     0.0000000000   29.9999950877    0.0000000000
     0.0000000000    0.0000000000   15.5000027228
PRIMCOORD
 48 1
         0.0000000000     0.0000000000     0.0000000000     -0.0028598500    -0.0468797300     0.0000040800
         0.0000000000     0.0000000000     0.0000000000     -0.0004938200    -0.0001948500     0.0000000100
         0.0000000000     0.0000000000     0.0000000000      0.0011838300     0.0337400400    -0.0000016700
         0.0000000000     0.0000000000     0.0000000000      0.0003564800     0.0000764400    -0.0000009400
         0.0000000000     0.0000000000     0.0000000000      0.0000602900    -0.0477048700     0.0000033700
         0.0000000000     0.0000000000     0.0000000000      0.0000101500     0.0000316000     0.0000000100
         0.0000000000     0.0000000000     0.0000000000     -0.0013355700     0.0337428100    -0.0000010100
         0.0000000000     0.0000000000     0.0000000000     -0.0003623100     0.0000678500    -0.0000010200
         0.0000000000     0.0000000000     0.0000000000      0.0029777600    -0.0468797300     0.0000030700
         0.0000000000     0.0000000000     0.0000000000      0.0004951800    -0.0001881500    -0.0000010400
         0.0000000000     0.0000000000     0.0000000000     -0.0016091000     0.0337914500    -0.0000015000
         0.0000000000     0.0000000000     0.0000000000     -0.0003891300    -0.0003199400    -0.0000006000
         0.0000000000     0.0000000000     0.0000000000      0.0000558000    -0.0451641300     0.0000034200
         0.0000000000     0.0000000000     0.0000000000     -0.0000054300    -0.0004488200    -0.0000003900
         0.0000000000     0.0000000000     0.0000000000      0.0014649300     0.0337900600    -0.0000014600
         0.0000000000     0.0000000000     0.0000000000      0.0004013600    -0.0003084200    -0.0000014600
         0.0000000000     0.0000000000     0.0000000000     -0.0005128200    -0.0002378500    -0.0000004800
         0.0000000000     0.0000000000     0.0000000000     -0.0006325800     0.0004389800    -0.0000001900
         0.0000000000     0.0000000000     0.0000000000      0.0003438200    -0.0000559600     0.0000002900
         0.0000000000     0.0000000000     0.0000000000      0.0000865300     0.0002431000     0.0000001600
         0.0000000000     0.0000000000     0.0000000000     -0.0000320400    -0.0003887800    -0.0000005600
         0.0000000000     0.0000000000     0.0000000000      0.0000113200     0.0004635500     0.0000003400
         0.0000000000     0.0000000000     0.0000000000     -0.0003484100    -0.0000525600     0.0000001400
         0.0000000000     0.0000000000     0.0000000000     -0.0001093100     0.0002434500    -0.0000003100
         0.0000000000     0.0000000000     0.0000000000      0.0004769900    -0.0002398700     0.0000007200
         0.0000000000     0.0000000000     0.0000000000      0.0006382300     0.0004270700    -0.0000008400
         0.0000000000     0.0000000000     0.0000000000     -0.0004700000     0.0003118300     0.0000014600
         0.0000000000     0.0000000000     0.0000000000     -0.0004472500    -0.0004483700     0.0000008100
         0.0000000000     0.0000000000     0.0000000000     -0.0000096300     0.0001942700    -0.0000008700
         0.0000000000     0.0000000000     0.0000000000     -0.0000063900     0.0000975300     0.0000001700
         0.0000000000     0.0000000000     0.0000000000      0.0004363500     0.0003101700     0.0000000600
         0.0000000000     0.0000000000     0.0000000000      0.0004439400    -0.0004508000    -0.0000003000
         0.0000000000     0.0000000000     0.0000000000      0.0000573100     0.0100603300    -0.0000007100
         0.0000000000     0.0000000000     0.0000000000      0.0000980800     0.0100604700    -0.0000006300
         0.0000000000     0.0000000000     0.0000000000      0.0000968700     0.0100338300    -0.0000005800
         0.0000000000     0.0000000000     0.0000000000      0.0000584400     0.0100336900    -0.0000007300
         0.0000000000     0.0000000000     0.0000000000      0.0000006700     0.0125726200     0.0000012600
         0.0000000000     0.0000000000     0.0000000000     -0.0000167900     0.0057884300     0.0000000900
         0.0000000000     0.0000000000     0.0000000000     -0.0000123300    -0.0051324100    -0.0000002900
         0.0000000000     0.0000000000     0.0000000000      0.0008186900     0.0040276000     0.0000006400
         0.0000000000     0.0000000000     0.0000000000     -0.0015022100     0.0005435600     0.0000002200
         0.0000000000     0.0000000000     0.0000000000      0.0010507300    -0.0054127100    -0.0000026100
         0.0000000000     0.0000000000     0.0000000000     -0.0010858900    -0.0054076700     0.0000026100
         0.0000000000     0.0000000000     0.0000000000     -0.0000101500    -0.0045251900     0.0000003600
         0.0000000000     0.0000000000     0.0000000000     -0.0004098000     0.0023812200     0.0000004500
         0.0000000000     0.0000000000     0.0000000000      0.0014711300     0.0005417800    -0.0000007700
         0.0000000000     0.0000000000     0.0000000000      0.0004027100     0.0023884600    -0.0000008100
         0.0000000000     0.0000000000     0.0000000000     -0.0008367900     0.0040386000    -0.0000019800
