CRYSTAL
PRIMVEC
     9.8639806455    0.0000000000    0.0000000000
     0.0000000000   29.9999950877    0.0000000000
     0.0000000000    0.0000000000   15.5000027228
PRIMCOORD
 49 1
         0.0000000000     0.0000000000     0.0000000000     -0.0008513800    -0.0468743800    -0.0001070600
         0.0000000000     0.0000000000     0.0000000000      0.0000108700    -0.0004261100     0.0000107700
         0.0000000000     0.0000000000     0.0000000000      0.0000438700     0.0331295600     0.0001324300
         0.0000000000     0.0000000000     0.0000000000     -0.0000432700     0.0001471600    -0.0000089800
         0.0000000000     0.0000000000     0.0000000000      0.0006192700    -0.0474789500    -0.0004481700
         0.0000000000     0.0000000000     0.0000000000      0.0000185400    -0.0004128600    -0.0000156800
         0.0000000000     0.0000000000     0.0000000000     -0.0025318900     0.0337486500     0.0000471900
         0.0000000000     0.0000000000     0.0000000000      0.0000078600     0.0001556100     0.0000012700
         0.0000000000     0.0000000000     0.0000000000      0.0016230900    -0.0458227600     0.0000694700
         0.0000000000     0.0000000000     0.0000000000     -0.0000094300    -0.0004773300     0.0000044200
         0.0000000000     0.0000000000     0.0000000000     -0.0001292500     0.0341645100     0.0000547600
         0.0000000000     0.0000000000     0.0000000000      0.0000116800     0.0001253800     0.0000244400
         0.0000000000     0.0000000000     0.0000000000     -0.0013070100    -0.0457441100     0.0001253000
         0.0000000000     0.0000000000     0.0000000000     -0.0000231000    -0.0004751500    -0.0000347600
         0.0000000000     0.0000000000     0.0000000000      0.0023242900     0.0338113200     0.0000289300
         0.0000000000     0.0000000000     0.0000000000     -0.0000106800     0.0001740200    -0.0000022800
         0.0000000000     0.0000000000     0.0000000000     -0.0000302300     0.0000180700     0.0000509400
         0.0000000000     0.0000000000     0.0000000000      0.0000948600     0.0001233400     0.0000389300
         0.0000000000     0.0000000000     0.0000000000     -0.0000579800    -0.0002844400     0.0000562500
         0.0000000000     0.0000000000     0.0000000000     -0.0000475900     0.0002005700    -0.0000380900
         0.0000000000     0.0000000000     0.0000000000      0.0000266100     0.0000481800    -0.0000042300
         0.0000000000     0.0000000000     0.0000000000      0.0000870200     0.0001307000    -0.0000314100
         0.0000000000     0.0000000000     0.0000000000     -0.0000485800    -0.0001301200     0.0000128800
         0.0000000000     0.0000000000     0.0000000000     -0.0003106900     0.0000124700     0.0003222700
         0.0000000000     0.0000000000     0.0000000000      0.0001055500     0.0002072400     0.0000458000
         0.0000000000     0.0000000000     0.0000000000      0.0000356500    -0.0002269900     0.0001501400
         0.0000000000     0.0000000000     0.0000000000      0.0000417400    -0.0001361200    -0.0000029100
         0.0000000000     0.0000000000     0.0000000000      0.0001891800    -0.0007201600     0.0010702700
         0.0000000000     0.0000000000     0.0000000000     -0.0001363600     0.0001056500     0.0000288400
         0.0000000000     0.0000000000     0.0000000000     -0.0001308000    -0.0002227600     0.0003450100
         0.0000000000     0.0000000000     0.0000000000      0.0000328100    -0.0001875200     0.0000343100
         0.0000000000     0.0000000000     0.0000000000      0.0003054500     0.0001888300    -0.0001301800
         0.0000000000     0.0000000000     0.0000000000      0.0000664300     0.0100985600     0.0000697700
         0.0000000000     0.0000000000     0.0000000000      0.0000009800     0.0101281700     0.0000389400
         0.0000000000     0.0000000000     0.0000000000      0.0000769400     0.0100966500    -0.0000215000
         0.0000000000     0.0000000000     0.0000000000      0.0001548000     0.0101211400    -0.0000046800
         0.0000000000     0.0000000000     0.0000000000     -0.0015659900     0.0000966700    -0.0009584700
         0.0000000000     0.0000000000     0.0000000000      0.0001797400     0.0056031300    -0.0000274300
         0.0000000000     0.0000000000     0.0000000000     -0.0001836600    -0.0051792300     0.0000581900
         0.0000000000     0.0000000000     0.0000000000     -0.0006830000     0.0052413900     0.0038151400
         0.0000000000     0.0000000000     0.0000000000      0.0005690300     0.0003767000    -0.0002501200
         0.0000000000     0.0000000000     0.0000000000      0.0001860500    -0.0051085100     0.0004273000
         0.0000000000     0.0000000000     0.0000000000      0.0000565200    -0.0046287200    -0.0019585500
         0.0000000000     0.0000000000     0.0000000000      0.0015104700    -0.0009523200     0.0014497900
         0.0000000000     0.0000000000     0.0000000000     -0.0015394000     0.0014897600     0.0006738900
         0.0000000000     0.0000000000     0.0000000000      0.0010701200     0.0011842500     0.0005110000
         0.0000000000     0.0000000000     0.0000000000     -0.0000964600     0.0017948900    -0.0000074500
         0.0000000000     0.0000000000     0.0000000000     -0.0001836200     0.0054633700     0.0001352600
         0.0000000000     0.0000000000     0.0000000000      0.0004709200     0.0073026200    -0.0057819300
