CRYSTAL
PRIMVEC
     9.8639806455    0.0000000000    0.0000000000
     0.0000000000   29.9999950877    0.0000000000
     0.0000000000    0.0000000000   15.5000027228
PRIMCOORD
 50 1
         0.0000000000     0.0000000000     0.0000000000     -0.0027063200    -0.0466706100    -0.0002217200
         0.0000000000     0.0000000000     0.0000000000     -0.0001552300    -0.0004110400     0.0000105000
         0.0000000000     0.0000000000     0.0000000000      0.0014304500     0.0337097400     0.0001242100
         0.0000000000     0.0000000000     0.0000000000      0.0000657900     0.0003034800     0.0000224800
         0.0000000000     0.0000000000     0.0000000000     -0.0002798600    -0.0475195100    -0.0003515800
         0.0000000000     0.0000000000     0.0000000000      0.0001061700    -0.0003730000     0.0000407500
         0.0000000000     0.0000000000     0.0000000000     -0.0011900700     0.0336690400     0.0001531600
         0.0000000000     0.0000000000     0.0000000000     -0.0002018300     0.0002178800    -0.0000015400
         0.0000000000     0.0000000000     0.0000000000      0.0027498400    -0.0467331000    -0.0003415600
         0.0000000000     0.0000000000     0.0000000000      0.0001332500    -0.0005176100     0.0000218100
         0.0000000000     0.0000000000     0.0000000000     -0.0018251200     0.0337752900     0.0001050900
         0.0000000000     0.0000000000     0.0000000000     -0.0000729500     0.0001535800     0.0000245600
         0.0000000000     0.0000000000     0.0000000000      0.0002679700    -0.0450565100    -0.0001099600
         0.0000000000     0.0000000000     0.0000000000     -0.0000772200    -0.0005688200     0.0000040600
         0.0000000000     0.0000000000     0.0000000000      0.0013038700     0.0338324500     0.0001040800
         0.0000000000     0.0000000000     0.0000000000      0.0002305100     0.0001983000     0.0000099200
         0.0000000000     0.0000000000     0.0000000000     -0.0002500700     0.0000223900     0.0000219500
         0.0000000000     0.0000000000     0.0000000000     -0.0002723800     0.0000955000    -0.0000884700
         0.0000000000     0.0000000000     0.0000000000      0.0000259700    -0.0003283100     0.0000014000
         0.0000000000     0.0000000000     0.0000000000      0.0000392100     0.0003819200    -0.0001336800
         0.0000000000     0.0000000000     0.0000000000      0.0001287500     0.0000275200    -0.0000002300
         0.0000000000     0.0000000000     0.0000000000      0.0001975500     0.0002284600    -0.0000128400
         0.0000000000     0.0000000000     0.0000000000     -0.0002138100    -0.0002889000     0.0000024100
         0.0000000000     0.0000000000     0.0000000000     -0.0001990800     0.0002353200    -0.0000235000
         0.0000000000     0.0000000000     0.0000000000      0.0001995000     0.0002041200    -0.0000006500
         0.0000000000     0.0000000000     0.0000000000      0.0001966900     0.0000514700     0.0000243400
         0.0000000000     0.0000000000     0.0000000000     -0.0001006800    -0.0000887600     0.0000061200
         0.0000000000     0.0000000000     0.0000000000     -0.0003234300     0.0000578400     0.0000414400
         0.0000000000     0.0000000000     0.0000000000     -0.0000809200     0.0003948300     0.0000651700
         0.0000000000     0.0000000000     0.0000000000     -0.0001366100    -0.0002991800     0.0000094300
         0.0000000000     0.0000000000     0.0000000000      0.0002983800    -0.0001070400     0.0000205500
         0.0000000000     0.0000000000     0.0000000000      0.0004858700     0.0000786700    -0.0001220100
         0.0000000000     0.0000000000     0.0000000000      0.0000613300     0.0101070600     0.0000698000
         0.0000000000     0.0000000000     0.0000000000      0.0000830900     0.0100962200     0.0000815500
         0.0000000000     0.0000000000     0.0000000000      0.0000831300     0.0100647500     0.0000542900
         0.0000000000     0.0000000000     0.0000000000      0.0000673100     0.0100726900     0.0000442000
         0.0000000000     0.0000000000     0.0000000000      0.0035207600    -0.0005682000     0.0034764600
         0.0000000000     0.0000000000     0.0000000000      0.0001728500     0.0054585000    -0.0001045800
         0.0000000000     0.0000000000     0.0000000000     -0.0000099700    -0.0051191300     0.0000011400
         0.0000000000     0.0000000000     0.0000000000      0.0006362900     0.0044331200    -0.0002899400
         0.0000000000     0.0000000000     0.0000000000     -0.0017375800     0.0005864100    -0.0002347600
         0.0000000000     0.0000000000     0.0000000000      0.0008327800    -0.0056859900     0.0000174800
         0.0000000000     0.0000000000     0.0000000000     -0.0008202500    -0.0059810300    -0.0003195500
         0.0000000000     0.0000000000     0.0000000000      0.0001360200    -0.0026944600    -0.0002268900
         0.0000000000     0.0000000000     0.0000000000     -0.0005084300     0.0019716200     0.0000058900
         0.0000000000     0.0000000000     0.0000000000      0.0019496400     0.0007866300    -0.0002020700
         0.0000000000     0.0000000000     0.0000000000      0.0002699800     0.0019591000    -0.0000883100
         0.0000000000     0.0000000000     0.0000000000     -0.0007306200     0.0039158100    -0.0004598200
         0.0000000000     0.0000000000     0.0000000000     -0.0012107500     0.0150500400    -0.0088015400
         0.0000000000     0.0000000000     0.0000000000     -0.0025697400    -0.0031285500     0.0075709500
