CRYSTAL
PRIMVEC
     9.8639806455    0.0000000000    0.0000000000
     0.0000000000   29.9999950877    0.0000000000
     0.0000000000    0.0000000000   15.5000027228
PRIMCOORD
 48 1
         0.0000000000     0.0000000000     0.0000000000     -0.0014831500    -0.0446753100     0.0009920600
         0.0000000000     0.0000000000     0.0000000000     -0.0000129600    -0.0005269400    -0.0000054800
         0.0000000000     0.0000000000     0.0000000000      0.0027359600     0.0338632300    -0.0000544900
         0.0000000000     0.0000000000     0.0000000000      0.0000772000     0.0001887500     0.0000542300
         0.0000000000     0.0000000000     0.0000000000     -0.0045384700    -0.0456650900     0.0003334400
         0.0000000000     0.0000000000     0.0000000000     -0.0000722700    -0.0004310600     0.0000086700
         0.0000000000     0.0000000000     0.0000000000     -0.0006841200     0.0340497500     0.0002253400
         0.0000000000     0.0000000000     0.0000000000      0.0000617500     0.0002188200     0.0000022500
         0.0000000000     0.0000000000     0.0000000000      0.0011470400    -0.0499384300    -0.0010431400
         0.0000000000     0.0000000000     0.0000000000      0.0000595600    -0.0004392900     0.0000249900
         0.0000000000     0.0000000000     0.0000000000     -0.0028197000     0.0345222400     0.0003821700
         0.0000000000     0.0000000000     0.0000000000     -0.0000305200     0.0002088400    -0.0000221200
         0.0000000000     0.0000000000     0.0000000000      0.0048173800    -0.0462901000    -0.0015238100
         0.0000000000     0.0000000000     0.0000000000      0.0001097700    -0.0005244300    -0.0000048500
         0.0000000000     0.0000000000     0.0000000000      0.0005140300     0.0339436300     0.0001990200
         0.0000000000     0.0000000000     0.0000000000     -0.0000655300     0.0001523200    -0.0000311100
         0.0000000000     0.0000000000     0.0000000000      0.0001766600     0.0004769400     0.0002526100
         0.0000000000     0.0000000000     0.0000000000     -0.0000804800    -0.0016547400    -0.0005605700
         0.0000000000     0.0000000000     0.0000000000     -0.0000575200    -0.0003260700    -0.0000651700
         0.0000000000     0.0000000000     0.0000000000      0.0001225800    -0.0002798800    -0.0002696900
         0.0000000000     0.0000000000     0.0000000000     -0.0000007500    -0.0000040100     0.0001418100
         0.0000000000     0.0000000000     0.0000000000      0.0001029000     0.0001375600    -0.0000107400
         0.0000000000     0.0000000000     0.0000000000     -0.0000009600    -0.0002977800    -0.0000132100
         0.0000000000     0.0000000000     0.0000000000     -0.0000211500     0.0000014800    -0.0000351400
         0.0000000000     0.0000000000     0.0000000000     -0.0000075600     0.0000240600    -0.0002017100
         0.0000000000     0.0000000000     0.0000000000     -0.0001742400     0.0001475700    -0.0001112500
         0.0000000000     0.0000000000     0.0000000000      0.0000373400    -0.0002493800     0.0000752100
         0.0000000000     0.0000000000     0.0000000000      0.0001581800    -0.0004661000    -0.0002778900
         0.0000000000     0.0000000000     0.0000000000     -0.0001856200     0.0003354000    -0.0002243800
         0.0000000000     0.0000000000     0.0000000000      0.0000440900    -0.0012096000    -0.0002428600
         0.0000000000     0.0000000000     0.0000000000     -0.0000161500    -0.0001527300    -0.0000527800
         0.0000000000     0.0000000000     0.0000000000      0.0000359000    -0.0023983300    -0.0005263900
         0.0000000000     0.0000000000     0.0000000000      0.0000517000     0.0098575900    -0.0001324500
         0.0000000000     0.0000000000     0.0000000000     -0.0001259600     0.0099720500     0.0000908300
         0.0000000000     0.0000000000     0.0000000000      0.0001124900     0.0099849100     0.0003067600
         0.0000000000     0.0000000000     0.0000000000      0.0002503600     0.0098949800     0.0000806300
         0.0000000000     0.0000000000     0.0000000000     -0.0028747000     0.0056448700    -0.0012979700
         0.0000000000     0.0000000000     0.0000000000     -0.0026503200    -0.0007499100     0.0008247900
         0.0000000000     0.0000000000     0.0000000000     -0.0000068800     0.0056572900     0.0007537000
         0.0000000000     0.0000000000     0.0000000000      0.0011946300     0.0028472700    -0.0042593600
         0.0000000000     0.0000000000     0.0000000000      0.0000877500     0.0020814900    -0.0022269800
         0.0000000000     0.0000000000     0.0000000000     -0.0000488500    -0.0049053100    -0.0006184900
         0.0000000000     0.0000000000     0.0000000000      0.0001418800     0.0020903500    -0.0004827400
         0.0000000000     0.0000000000     0.0000000000     -0.0007625600    -0.0046894900     0.0008571900
         0.0000000000     0.0000000000     0.0000000000      0.0000186800     0.0060684800    -0.0013645100
         0.0000000000     0.0000000000     0.0000000000      0.0028563400     0.0069769800     0.0083315800
         0.0000000000     0.0000000000     0.0000000000      0.0016064500     0.0010958900     0.0010672000
         0.0000000000     0.0000000000     0.0000000000      0.0001997700    -0.0045687700     0.0006548200
