CRYSTAL
PRIMVEC
     9.8639806455    0.0000000000    0.0000000000
     0.0000000000   29.9999950877    0.0000000000
     0.0000000000    0.0000000000   15.5000027228
PRIMCOORD
 50 1
         0.0000000000     0.0000000000     0.0000000000      0.0028623500    -0.0441680900     0.0012060600
         0.0000000000     0.0000000000     0.0000000000     -0.0002741200    -0.0005368500    -0.0000297600
         0.0000000000     0.0000000000     0.0000000000     -0.0016084600     0.0328881900    -0.0001287900
         0.0000000000     0.0000000000     0.0000000000      0.0003645400     0.0003345000     0.0001375100
         0.0000000000     0.0000000000     0.0000000000     -0.0016801300    -0.0433650000     0.0004313900
         0.0000000000     0.0000000000     0.0000000000     -0.0003003200    -0.0004281500     0.0000146500
         0.0000000000     0.0000000000     0.0000000000     -0.0000013400     0.0336429000     0.0001380800
         0.0000000000     0.0000000000     0.0000000000     -0.0000205400     0.0005892500     0.0000006200
         0.0000000000     0.0000000000     0.0000000000     -0.0021293900    -0.0472685900    -0.0010422200
         0.0000000000     0.0000000000     0.0000000000      0.0003849400    -0.0004574000     0.0000308900
         0.0000000000     0.0000000000     0.0000000000      0.0014806500     0.0332123000     0.0003373100
         0.0000000000     0.0000000000     0.0000000000     -0.0003419300     0.0001420100    -0.0000510200
         0.0000000000     0.0000000000     0.0000000000      0.0008602900    -0.0461304200    -0.0014145700
         0.0000000000     0.0000000000     0.0000000000      0.0001912100    -0.0006049100    -0.0000026100
         0.0000000000     0.0000000000     0.0000000000     -0.0001590200     0.0314051700     0.0001172100
         0.0000000000     0.0000000000     0.0000000000     -0.0000038800    -0.0002509800    -0.0000074200
         0.0000000000     0.0000000000     0.0000000000     -0.0002977500     0.0006034200     0.0001049500
         0.0000000000     0.0000000000     0.0000000000      0.0000872800    -0.0007131600    -0.0004741800
         0.0000000000     0.0000000000     0.0000000000      0.0008477900    -0.0002625900    -0.0000235400
         0.0000000000     0.0000000000     0.0000000000      0.0010664200    -0.0001582700    -0.0001047100
         0.0000000000     0.0000000000     0.0000000000     -0.0004572600    -0.0003010700    -0.0000133700
         0.0000000000     0.0000000000     0.0000000000     -0.0004526300     0.0003397500    -0.0000264500
         0.0000000000     0.0000000000     0.0000000000      0.0000096900    -0.0006062300    -0.0000194400
         0.0000000000     0.0000000000     0.0000000000     -0.0000512000     0.0006132500    -0.0000497800
         0.0000000000     0.0000000000     0.0000000000      0.0005109400    -0.0003095500    -0.0001148700
         0.0000000000     0.0000000000     0.0000000000      0.0005941400     0.0003778500    -0.0001677700
         0.0000000000     0.0000000000     0.0000000000     -0.0007726700    -0.0000982300    -0.0000145300
         0.0000000000     0.0000000000     0.0000000000     -0.0008022400    -0.0002662400    -0.0004899700
         0.0000000000     0.0000000000     0.0000000000      0.0002158800     0.0004771300    -0.0000478200
         0.0000000000     0.0000000000     0.0000000000     -0.0000327800    -0.0003253600    -0.0000175300
         0.0000000000     0.0000000000     0.0000000000      0.0000537100     0.0000954000    -0.0000396100
         0.0000000000     0.0000000000     0.0000000000      0.0002993900    -0.0057501400    -0.0013128100
         0.0000000000     0.0000000000     0.0000000000     -0.0000201200     0.0099036400    -0.0001864100
         0.0000000000     0.0000000000     0.0000000000     -0.0000911900     0.0099026200     0.0000809200
         0.0000000000     0.0000000000     0.0000000000      0.0001791900     0.0100521500     0.0002972500
         0.0000000000     0.0000000000     0.0000000000      0.0002164600     0.0100709500     0.0000313000
         0.0000000000     0.0000000000     0.0000000000     -0.0003899100    -0.0002140400     0.0001686700
         0.0000000000     0.0000000000     0.0000000000     -0.0036405900    -0.0017045900     0.0010625600
         0.0000000000     0.0000000000     0.0000000000     -0.0005302300     0.0056528300     0.0011895300
         0.0000000000     0.0000000000     0.0000000000      0.0016277100     0.0030595300    -0.0042302600
         0.0000000000     0.0000000000     0.0000000000     -0.0011513000     0.0013659700    -0.0031696500
         0.0000000000     0.0000000000     0.0000000000     -0.0000697400    -0.0050243500    -0.0006623800
         0.0000000000     0.0000000000     0.0000000000      0.0000893200     0.0013851300    -0.0003418700
         0.0000000000     0.0000000000     0.0000000000     -0.0010224400    -0.0052786100     0.0003854500
         0.0000000000     0.0000000000     0.0000000000      0.0003928900     0.0060275000    -0.0015130500
         0.0000000000     0.0000000000     0.0000000000      0.0037014100     0.0050375300     0.0084763900
         0.0000000000     0.0000000000     0.0000000000      0.0027110100     0.0008474300     0.0011382600
         0.0000000000     0.0000000000     0.0000000000     -0.0003502300    -0.0051860100     0.0002398700
         0.0000000000     0.0000000000     0.0000000000      0.0045472000     0.0158841000     0.0025023200
         0.0000000000     0.0000000000     0.0000000000     -0.0066429500    -0.0045016600    -0.0023947800
