CRYSTAL
PRIMVEC
     9.8639806455    0.0000000000    0.0000000000
     0.0000000000   29.9999950877    0.0000000000
     0.0000000000    0.0000000000   15.5000027228
PRIMCOORD
 51 1
         0.0000000000     0.0000000000     0.0000000000      0.0018967600    -0.0440805300     0.0013849500
         0.0000000000     0.0000000000     0.0000000000     -0.0002175800    -0.0005628700    -0.0000560300
         0.0000000000     0.0000000000     0.0000000000     -0.0006655000     0.0330019100    -0.0002500300
         0.0000000000     0.0000000000     0.0000000000      0.0000731600     0.0003647700     0.0000548400
         0.0000000000     0.0000000000     0.0000000000     -0.0023184400    -0.0442073000     0.0006689400
         0.0000000000     0.0000000000     0.0000000000     -0.0002416000    -0.0005092200    -0.0000450900
         0.0000000000     0.0000000000     0.0000000000     -0.0000986400     0.0336697500     0.0000140100
         0.0000000000     0.0000000000     0.0000000000      0.0000263000     0.0007160900     0.0000068300
         0.0000000000     0.0000000000     0.0000000000     -0.0011553900    -0.0478683100    -0.0007564800
         0.0000000000     0.0000000000     0.0000000000      0.0002738700    -0.0005117500    -0.0000052700
         0.0000000000     0.0000000000     0.0000000000      0.0005529600     0.0334214400     0.0001940900
         0.0000000000     0.0000000000     0.0000000000     -0.0001002500     0.0001962100    -0.0000756900
         0.0000000000     0.0000000000     0.0000000000      0.0015779700    -0.0457371900    -0.0011441800
         0.0000000000     0.0000000000     0.0000000000      0.0001612700    -0.0006180800     0.0000066700
         0.0000000000     0.0000000000     0.0000000000     -0.0000750600     0.0320638900    -0.0000117300
         0.0000000000     0.0000000000     0.0000000000     -0.0000365600    -0.0001547300    -0.0000195600
         0.0000000000     0.0000000000     0.0000000000      0.0000203300     0.0006118400     0.0000927700
         0.0000000000     0.0000000000     0.0000000000      0.0004275300    -0.0007726300    -0.0005221100
         0.0000000000     0.0000000000     0.0000000000      0.0004788600    -0.0003214600    -0.0000311400
         0.0000000000     0.0000000000     0.0000000000      0.0003688100    -0.0001698900    -0.0001326200
         0.0000000000     0.0000000000     0.0000000000     -0.0001766900    -0.0000759200     0.0000459800
         0.0000000000     0.0000000000     0.0000000000     -0.0001268100     0.0000278100    -0.0000490000
         0.0000000000     0.0000000000     0.0000000000     -0.0000459900    -0.0004668400    -0.0000254300
         0.0000000000     0.0000000000     0.0000000000     -0.0000646700     0.0003827200     0.0000033600
         0.0000000000     0.0000000000     0.0000000000      0.0001218200    -0.0000540000    -0.0001492900
         0.0000000000     0.0000000000     0.0000000000      0.0001912400     0.0000723200    -0.0001124800
         0.0000000000     0.0000000000     0.0000000000     -0.0004428700    -0.0002434100     0.0000273600
         0.0000000000     0.0000000000     0.0000000000     -0.0001858900    -0.0003195800    -0.0004649100
         0.0000000000     0.0000000000     0.0000000000     -0.0001165700     0.0005195100    -0.0001009500
         0.0000000000     0.0000000000     0.0000000000     -0.0002803300    -0.0005148400    -0.0001391100
         0.0000000000     0.0000000000     0.0000000000      0.0000405500    -0.0002098100    -0.0000309100
         0.0000000000     0.0000000000     0.0000000000     -0.0001482600    -0.0049984500    -0.0009693000
         0.0000000000     0.0000000000     0.0000000000     -0.0000051600     0.0098702400    -0.0002345900
         0.0000000000     0.0000000000     0.0000000000     -0.0000833300     0.0099094000     0.0000118100
         0.0000000000     0.0000000000     0.0000000000      0.0001675500     0.0099939800     0.0002221600
         0.0000000000     0.0000000000     0.0000000000      0.0002135500     0.0099704900    -0.0000254400
         0.0000000000     0.0000000000     0.0000000000     -0.0002363300    -0.0015970700    -0.0005357500
         0.0000000000     0.0000000000     0.0000000000     -0.0035639300    -0.0016582400     0.0010885000
         0.0000000000     0.0000000000     0.0000000000     -0.0002913500     0.0055850900     0.0010387800
         0.0000000000     0.0000000000     0.0000000000      0.0017044000     0.0032396600    -0.0042627400
         0.0000000000     0.0000000000     0.0000000000     -0.0004701200     0.0013276200    -0.0029982700
         0.0000000000     0.0000000000     0.0000000000      0.0000459100    -0.0051375600    -0.0007083000
         0.0000000000     0.0000000000     0.0000000000      0.0002304100     0.0017691400    -0.0004043200
         0.0000000000     0.0000000000     0.0000000000     -0.0005306900    -0.0063854100     0.0005773400
         0.0000000000     0.0000000000     0.0000000000     -0.0000792000     0.0059315600    -0.0014942100
         0.0000000000     0.0000000000     0.0000000000      0.0034866000     0.0043391300     0.0088535400
         0.0000000000     0.0000000000     0.0000000000      0.0023256500     0.0010082000     0.0011603000
         0.0000000000     0.0000000000     0.0000000000     -0.0001945800    -0.0052070200     0.0003568300
         0.0000000000     0.0000000000     0.0000000000     -0.0011604700     0.0098274700     0.0004551100
         0.0000000000     0.0000000000     0.0000000000     -0.0054271300     0.0106477600    -0.0000905600
         0.0000000000     0.0000000000     0.0000000000      0.0041539000    -0.0060858700    -0.0004186700
