CRYSTAL
PRIMVEC
 9.86398064105027 0.00000000000000 0.00000000000000
 0.00000000000000 29.99999507430976 0.00000000000000
 0.00000000000000 0.00000000000000 15.50000271584972
PRIMCOORD
 49 1
  6     0.71187149000000     2.92123941900000     5.00000000000000     0.00000000000000     0.00000000000000     0.00000000000000
  6     0.70830792900000     4.35574606100000     4.99011987200000    -0.00001621384894    -0.00000467707181     0.00003667958135
  6     1.94486908000000     2.20936792800000     5.00000000000000     0.00000000000000     0.00000000000000     0.00000000000000
  6     1.94571160700000     5.05689441300000     4.98824137500000    -0.00000766283886    -0.00001889725984    -0.00000123777052
  6     3.17786667000000     2.92123941900000     5.00000000000000     0.00000000000000     0.00000000000000     0.00000000000000
  6     3.18122442900000     4.35787161000000     4.99993005500000     0.00000468652044    -0.00000888171212    -0.00005391388232
  6     4.41086426000000     2.20936792800000     5.00000000000000     0.00000000000000     0.00000000000000     0.00000000000000
  6     4.41666898600000     5.06818301100000     5.01272323800000    -0.00000394007868    -0.00000068974998    -0.00001459813322
  6     5.64386185000000     2.92123941900000     5.00000000000000     0.00000000000000     0.00000000000000     0.00000000000000
  6     5.64749170300000     4.36083314700000     5.01179616400000     0.00001370996201     0.00000193696913     0.00000301411294
  6     6.87685944000000     2.20936792800000     5.00000000000000     0.00000000000000     0.00000000000000     0.00000000000000
  6     6.87371916400000     5.07644355900000     5.01579485500000     0.00002168460566    -0.00000364717115    -0.00000593373959
  6     8.10985703000000     2.92123941900000     5.00000000000000     0.00000000000000     0.00000000000000     0.00000000000000
  6     8.10643265100000     4.36156736600000     5.00046860300000     0.00001158402028     0.00000068030135    -0.00001525008869
  6     9.34285462000000     2.20936792800000     5.00000000000000     0.00000000000000     0.00000000000000     0.00000000000000
  6     9.33937574200000     5.06350305500000     4.98778506400000    -0.00000659514368     0.00001338870860     0.00000705812655
  6     0.71354369100000     7.18855431700000     4.95282137800000    -0.00000715261285     0.00000049132876     0.00002208144812
  6     0.71887257500000     8.61204315500000     4.91685907200000    -0.00000320308554     0.00000599043137     0.00000666128409
  6     1.94762393500000     6.47981032300000     4.97269842000000    -0.00001715871193    -0.00001672407496    -0.00001148953398
  6     1.95197155100000     9.30890937500000     4.89561237900000    -0.00001792405096     0.00003486544440     0.00002019172214
  6     3.18210789500000     7.18393267100000     4.99491513700000    -0.00002340425631     0.00000146453764    -0.00003413789990
  6     3.18294597800000     8.60104285100000     4.97547788700000    -0.00002002164680     0.00001454144145    -0.00001258557505
  6     4.41974064100000     6.49719445300000     5.02842343100000    -0.00001472096541     0.00000359047937     0.00001163126343
  6     4.37277688200000     9.37505444900000     5.06668469000000     0.00000096376025    -0.00000616995534    -0.00002179798922
  6     5.64000994500000     7.23774200900000     5.06754402200000     0.00000404401361    -0.00001461703048     0.00001451309556
  6     5.62604703500000     8.69037768600000     5.13452962300000     0.00000715261285    -0.00002443415697    -0.00000106769518
  6     6.86948933800000     6.51539032300000     5.03832369000000     0.00001344540037    -0.00000082203080    -0.00000270230816
  6     6.89688062700000     9.38175728000000     5.19199484700000     0.00000836203748    -0.00000421408894     0.00002758055073
  6     8.10839410200000     7.21791667300000     5.00778300500000    -0.00000234326022     0.00001529733184    -0.00001567527704
  6     8.11424381400000     8.65076499400000     5.03995306900000    -0.00000560303754     0.00001367216749     0.00000810692447
  6     9.33861809500000     6.49499660400000     4.97559936600000    -0.00000534792453     0.00001638392428     0.00000073699313
  6     9.36515570100000     9.33166115800000     4.96336222300000    -0.00000557469165    -0.00000152122942    -0.00000195586639
  1     1.94450233900000     1.10952337400000     5.00000000000000     0.00000000000000     0.00000000000000     0.00000000000000
  1     4.41049752000000     1.10952337400000     5.00000000000000     0.00000000000000     0.00000000000000     0.00000000000000
  1     6.87649270100000     1.10952337400000     5.00000000000000     0.00000000000000     0.00000000000000     0.00000000000000
  1     9.34248788200000     1.10952337400000     5.00000000000000     0.00000000000000     0.00000000000000     0.00000000000000
  6     6.99212685700000    10.80343832100000     5.42193404500000     0.00001180133877    -0.00000034959931    -0.00000645341423
  6     5.88411555000000    11.55567728600000     6.02244205500000     0.00001836813656    -0.00000414794853    -0.00000685025669
  6     9.42027019900000    10.75880196400000     4.98087456900000    -0.00000091651710    -0.00000634947931     0.00000158736983
  1     3.23680181400000    12.91038109400000     4.90479372100000    -0.00000102990066    -0.00000946752718     0.00000142674312
  1     0.80022308100000    12.52250419300000     4.91996400900000     0.00002415069807    -0.00001382334557     0.00000706757518
 78     3.99362439700000    11.34222225500000     5.07173815800000     0.00001029900661    -0.00000926910595    -0.00000642506834
  6     8.21203727300000    11.44954556800000     5.19914074900000     0.00000837148611     0.00001066750318    -0.00003359932799
  1     4.07475300500000    13.09251130300000     5.06474412100000     0.00001745161946     0.00001087537304     0.00000094486299
  1     6.17928595900000    12.60319939900000     6.19672630800000    -0.00001686580441     0.00001401231817     0.00002652230418
  1     5.60656653600000    11.10100645800000     6.99656408400000    -0.00001444695515     0.00002854431099     0.00000689749984
  6     0.82184269200000    11.42305307400000     4.90606259900000    -0.00001398397228     0.00000840928063    -0.00000137949997
  6     2.03151727500000    10.73855721100000     4.84688703600000    -0.00001115883193     0.00002827974935     0.00001805633178
  1     8.25048633900000    12.54005169800000     5.32728720600000    -0.00000486604441    -0.00000557469165    -0.00000832424296
