CRYSTAL
PRIMVEC
     8.5428654021    0.0000000000    0.0000000000
     0.0000000000   29.9999975181    0.0000000000
     0.0000000000    0.0000000000   15.4999955853
PRIMCOORD
 46 1
         0.0000000000     0.0000000000     0.0000000000      0.0828177100     0.0108676100     0.0002637500
         0.0000000000     0.0000000000     0.0000000000     -0.0833044500     0.0110390900     0.0000146300
         0.0000000000     0.0000000000     0.0000000000      0.0211786000    -0.0255339300    -0.0001264500
         0.0000000000     0.0000000000     0.0000000000     -0.0207711300    -0.0241529800    -0.0000449700
         0.0000000000     0.0000000000     0.0000000000      0.0001866900    -0.0001445800    -0.0000006300
         0.0000000000     0.0000000000     0.0000000000     -0.0001493100    -0.0001136800     0.0000056600
         0.0000000000     0.0000000000     0.0000000000      0.0000077000     0.0001163000     0.0000259400
         0.0000000000     0.0000000000     0.0000000000     -0.0000223000     0.0001236400     0.0000671700
         0.0000000000     0.0000000000     0.0000000000     -0.0000164000    -0.0001791900     0.0000603300
         0.0000000000     0.0000000000     0.0000000000      0.0000483500    -0.0001282800     0.0000100900
         0.0000000000     0.0000000000     0.0000000000     -0.0002181800    -0.0000278700     0.0000889100
         0.0000000000     0.0000000000     0.0000000000      0.0000979800    -0.0001061000     0.0000544300
         0.0000000000     0.0000000000     0.0000000000     -0.0001991000     0.0001454400     0.0004814000
         0.0000000000     0.0000000000     0.0000000000      0.0001887300     0.0000887700     0.0001075600
         0.0000000000     0.0000000000     0.0000000000      0.0824619300     0.0114716100     0.0001228300
         0.0000000000     0.0000000000     0.0000000000     -0.0826916600     0.0110881300     0.0002708600
         0.0000000000     0.0000000000     0.0000000000      0.0210472300    -0.0255496900    -0.0000154900
         0.0000000000     0.0000000000     0.0000000000     -0.0206515900    -0.0243536700    -0.0008442500
         0.0000000000     0.0000000000     0.0000000000      0.0001785500    -0.0001849400     0.0000153200
         0.0000000000     0.0000000000     0.0000000000     -0.0002030600    -0.0000510500     0.0000292000
         0.0000000000     0.0000000000     0.0000000000      0.0000847400     0.0002106600     0.0000002100
         0.0000000000     0.0000000000     0.0000000000     -0.0000493400     0.0001018300     0.0000198700
         0.0000000000     0.0000000000     0.0000000000      0.0000082800    -0.0002878800     0.0000363600
         0.0000000000     0.0000000000     0.0000000000     -0.0000448800    -0.0000825800     0.0000414800
         0.0000000000     0.0000000000     0.0000000000     -0.0001803300     0.0001151100     0.0001448900
         0.0000000000     0.0000000000     0.0000000000      0.0001267700     0.0000003100     0.0000186900
         0.0000000000     0.0000000000     0.0000000000     -0.0000026000     0.0004039200    -0.0000828100
         0.0000000000     0.0000000000     0.0000000000      0.0001621900     0.0004057700     0.0002312700
         0.0000000000     0.0000000000     0.0000000000      0.0084109400     0.0111630200     0.0000280900
         0.0000000000     0.0000000000     0.0000000000     -0.0084105000     0.0111356300    -0.0000033800
         0.0000000000     0.0000000000     0.0000000000      0.0083992600     0.0111915800     0.0000072500
         0.0000000000     0.0000000000     0.0000000000     -0.0083686800     0.0111506900     0.0000870000
         0.0000000000     0.0000000000     0.0000000000     -0.0010497300     0.0053232700     0.0004267600
         0.0000000000     0.0000000000     0.0000000000      0.0007232100     0.0058123900     0.0007778500
         0.0000000000     0.0000000000     0.0000000000      0.0000758600     0.0012498000     0.0006679600
         0.0000000000     0.0000000000     0.0000000000     -0.0003938100     0.0002133300    -0.0001278900
         0.0000000000     0.0000000000     0.0000000000      0.0001934400     0.0007691200     0.0001398400
         0.0000000000     0.0000000000     0.0000000000      0.0001683500     0.0007048900     0.0031260900
         0.0000000000     0.0000000000     0.0000000000      0.0062867100     0.0021295800    -0.0026708200
         0.0000000000     0.0000000000     0.0000000000      0.0024104100    -0.0038664400     0.0014101900
         0.0000000000     0.0000000000     0.0000000000     -0.0023588500    -0.0040753000    -0.0006119600
         0.0000000000     0.0000000000     0.0000000000      0.0034776200    -0.0041435600     0.0003351900
         0.0000000000     0.0000000000     0.0000000000     -0.0044882400    -0.0049243200     0.0005573100
         0.0000000000     0.0000000000     0.0000000000     -0.0041724100     0.0077883000    -0.0037770800
         0.0000000000     0.0000000000     0.0000000000     -0.0074533300     0.0065407000    -0.0025841300
         0.0000000000     0.0000000000     0.0000000000      0.0064586300    -0.0034444400     0.0012154500
