CRYSTAL
PRIMVEC
     8.5428654021    0.0000000000    0.0000000000
     0.0000000000   29.9999975181    0.0000000000
     0.0000000000    0.0000000000   15.4999955853
PRIMCOORD
 48 1
         0.0000000000     0.0000000000     0.0000000000      0.0797076700     0.0145365500    -0.0001139400
         0.0000000000     0.0000000000     0.0000000000     -0.0796802100     0.0136125300     0.0001121000
         0.0000000000     0.0000000000     0.0000000000      0.0242963500    -0.0253902600     0.0001065500
         0.0000000000     0.0000000000     0.0000000000     -0.0252600700    -0.0262751200    -0.0001288000
         0.0000000000     0.0000000000     0.0000000000      0.0001762000    -0.0001332000    -0.0000284500
         0.0000000000     0.0000000000     0.0000000000     -0.0001423000    -0.0001523700     0.0000093100
         0.0000000000     0.0000000000     0.0000000000      0.0001942800     0.0001784500    -0.0000798600
         0.0000000000     0.0000000000     0.0000000000     -0.0001361500     0.0001449800    -0.0000501600
         0.0000000000     0.0000000000     0.0000000000     -0.0004206100    -0.0001439100    -0.0001301500
         0.0000000000     0.0000000000     0.0000000000      0.0004068200    -0.0001230700    -0.0000507400
         0.0000000000     0.0000000000     0.0000000000     -0.0001941500    -0.0003232000    -0.0005068400
         0.0000000000     0.0000000000     0.0000000000      0.0002969600    -0.0001506400    -0.0000380400
         0.0000000000     0.0000000000     0.0000000000     -0.0007342500     0.0010315700    -0.0007870900
         0.0000000000     0.0000000000     0.0000000000      0.0007205300     0.0005384700    -0.0000962700
         0.0000000000     0.0000000000     0.0000000000      0.0780385400     0.0149177700     0.0000703400
         0.0000000000     0.0000000000     0.0000000000     -0.0781725600     0.0141787500    -0.0001447200
         0.0000000000     0.0000000000     0.0000000000      0.0247239900    -0.0315147600    -0.0002866100
         0.0000000000     0.0000000000     0.0000000000     -0.0236969300    -0.0290503300     0.0003834600
         0.0000000000     0.0000000000     0.0000000000      0.0002335600    -0.0001568100    -0.0000051400
         0.0000000000     0.0000000000     0.0000000000     -0.0002133400    -0.0002116600     0.0000142100
         0.0000000000     0.0000000000     0.0000000000      0.0001358100     0.0002527800     0.0000036000
         0.0000000000     0.0000000000     0.0000000000     -0.0002395100     0.0002946400    -0.0000297300
         0.0000000000     0.0000000000     0.0000000000     -0.0002513800    -0.0001508700    -0.0000468900
         0.0000000000     0.0000000000     0.0000000000      0.0002078900    -0.0003486900    -0.0001854500
         0.0000000000     0.0000000000     0.0000000000     -0.0001938700    -0.0000373800    -0.0000607400
         0.0000000000     0.0000000000     0.0000000000      0.0000201900    -0.0000677500    -0.0003977300
         0.0000000000     0.0000000000     0.0000000000     -0.0002144000     0.0004180600    -0.0000828300
         0.0000000000     0.0000000000     0.0000000000      0.0001519700     0.0002199800    -0.0005429100
         0.0000000000     0.0000000000     0.0000000000      0.0081783300     0.0111809100    -0.0000124500
         0.0000000000     0.0000000000     0.0000000000     -0.0082588000     0.0111822700     0.0000127900
         0.0000000000     0.0000000000     0.0000000000      0.0082506200     0.0110657900     0.0000343700
         0.0000000000     0.0000000000     0.0000000000     -0.0082157700     0.0112239200    -0.0000465200
         0.0000000000     0.0000000000     0.0000000000     -0.0034042600    -0.0048643300    -0.0001446800
         0.0000000000     0.0000000000     0.0000000000     -0.0001918200    -0.0031037200     0.0037953400
         0.0000000000     0.0000000000     0.0000000000      0.0015996300     0.0016838800     0.0001604600
         0.0000000000     0.0000000000     0.0000000000      0.0018514700    -0.0052534600    -0.0004353900
         0.0000000000     0.0000000000     0.0000000000     -0.0033899100    -0.0049355000     0.0007635400
         0.0000000000     0.0000000000     0.0000000000      0.0001236100    -0.0012452200    -0.0047399100
         0.0000000000     0.0000000000     0.0000000000      0.0003270800     0.0014789200    -0.0007184200
         0.0000000000     0.0000000000     0.0000000000      0.0003310800    -0.0002350000    -0.0002482600
         0.0000000000     0.0000000000     0.0000000000      0.0025202300     0.0052132100     0.0000652100
         0.0000000000     0.0000000000     0.0000000000      0.0009800500     0.0012562300    -0.0024277900
         0.0000000000     0.0000000000     0.0000000000     -0.0019791100    -0.0038692300    -0.0045697600
         0.0000000000     0.0000000000     0.0000000000     -0.0027349200     0.0074022600     0.0015447500
         0.0000000000     0.0000000000     0.0000000000      0.0040568000     0.0079860400     0.0013187700
         0.0000000000     0.0000000000     0.0000000000      0.0020244100     0.0040007600     0.0083052000
         0.0000000000     0.0000000000     0.0000000000      0.0000713900    -0.0013103000    -0.0002264500
         0.0000000000     0.0000000000     0.0000000000     -0.0019011200     0.0050480400     0.0006627100
