CRYSTAL
PRIMVEC
     8.5428654021    0.0000000000    0.0000000000
     0.0000000000   29.9999975181    0.0000000000
     0.0000000000    0.0000000000   15.4999955853
PRIMCOORD
 49 1
         0.0000000000     0.0000000000     0.0000000000      0.0832150200     0.0109645000     0.0000926500
         0.0000000000     0.0000000000     0.0000000000     -0.0835881800     0.0109685100    -0.0000810600
         0.0000000000     0.0000000000     0.0000000000      0.0209997300    -0.0233630300    -0.0000484400
         0.0000000000     0.0000000000     0.0000000000     -0.0206733500    -0.0225068100     0.0000820800
         0.0000000000     0.0000000000     0.0000000000      0.0001436900    -0.0001274000    -0.0000002700
         0.0000000000     0.0000000000     0.0000000000     -0.0001804700    -0.0000724900    -0.0000002100
         0.0000000000     0.0000000000     0.0000000000      0.0000993700     0.0002119500     0.0000030900
         0.0000000000     0.0000000000     0.0000000000     -0.0001168100     0.0002029500     0.0000210000
         0.0000000000     0.0000000000     0.0000000000     -0.0000082000    -0.0002774400     0.0000181900
         0.0000000000     0.0000000000     0.0000000000      0.0000060100    -0.0001972400     0.0000013500
         0.0000000000     0.0000000000     0.0000000000     -0.0002547700     0.0001252800     0.0000207900
         0.0000000000     0.0000000000     0.0000000000      0.0001217300    -0.0000806000     0.0000193300
         0.0000000000     0.0000000000     0.0000000000     -0.0005987700     0.0006292400     0.0002328500
         0.0000000000     0.0000000000     0.0000000000      0.0001075500     0.0002365800    -0.0000776500
         0.0000000000     0.0000000000     0.0000000000      0.0831411300     0.0104531500    -0.0000299700
         0.0000000000     0.0000000000     0.0000000000     -0.0836512400     0.0103727900     0.0000946800
         0.0000000000     0.0000000000     0.0000000000      0.0201337900    -0.0275518400     0.0001781200
         0.0000000000     0.0000000000     0.0000000000     -0.0195234800    -0.0244055400    -0.0003224900
         0.0000000000     0.0000000000     0.0000000000      0.0001774100    -0.0001794300    -0.0000026600
         0.0000000000     0.0000000000     0.0000000000     -0.0002216500     0.0000065700     0.0000096200
         0.0000000000     0.0000000000     0.0000000000      0.0001194600     0.0002878800    -0.0000098600
         0.0000000000     0.0000000000     0.0000000000     -0.0000735900     0.0000958400    -0.0000151000
         0.0000000000     0.0000000000     0.0000000000      0.0001326900    -0.0004444700     0.0000100100
         0.0000000000     0.0000000000     0.0000000000     -0.0000551700    -0.0001177200     0.0000137400
         0.0000000000     0.0000000000     0.0000000000     -0.0002361500     0.0002810600     0.0000287800
         0.0000000000     0.0000000000     0.0000000000      0.0000930600    -0.0000151600    -0.0000512600
         0.0000000000     0.0000000000     0.0000000000     -0.0000977600     0.0002475700    -0.0000372800
         0.0000000000     0.0000000000     0.0000000000      0.0003092600     0.0004157000     0.0000673600
         0.0000000000     0.0000000000     0.0000000000      0.0083654000     0.0112040000     0.0000133600
         0.0000000000     0.0000000000     0.0000000000     -0.0083721000     0.0111556000    -0.0000135800
         0.0000000000     0.0000000000     0.0000000000      0.0084408900     0.0111316000    -0.0000169600
         0.0000000000     0.0000000000     0.0000000000     -0.0083753700     0.0111354500     0.0000356000
         0.0000000000     0.0000000000     0.0000000000     -0.0037691000    -0.0051980700    -0.0001134900
         0.0000000000     0.0000000000     0.0000000000      0.0001275000    -0.0021270800     0.0047245200
         0.0000000000     0.0000000000     0.0000000000      0.0019155100     0.0013878400    -0.0000530700
         0.0000000000     0.0000000000     0.0000000000      0.0015474600    -0.0048906900     0.0003965900
         0.0000000000     0.0000000000     0.0000000000     -0.0036449500    -0.0057516000    -0.0003773600
         0.0000000000     0.0000000000     0.0000000000      0.0003897200    -0.0030866100    -0.0042077600
         0.0000000000     0.0000000000     0.0000000000      0.0006801800     0.0013581800     0.0002091400
         0.0000000000     0.0000000000     0.0000000000      0.0003017800     0.0004297600    -0.0000031500
         0.0000000000     0.0000000000     0.0000000000      0.0022010900     0.0051718500    -0.0002009600
         0.0000000000     0.0000000000     0.0000000000      0.0007760600     0.0016021300     0.0016906000
         0.0000000000     0.0000000000     0.0000000000     -0.0048696100     0.0008456200     0.0058227600
         0.0000000000     0.0000000000     0.0000000000      0.0012218700    -0.0010165700    -0.0013530600
         0.0000000000     0.0000000000     0.0000000000      0.0048080200     0.0074473400    -0.0003233200
         0.0000000000     0.0000000000     0.0000000000      0.0041040400     0.0002749900    -0.0039150200
         0.0000000000     0.0000000000     0.0000000000     -0.0068442200     0.0094606700    -0.0011921200
         0.0000000000     0.0000000000     0.0000000000     -0.0037468200     0.0085089100    -0.0019004200
         0.0000000000     0.0000000000     0.0000000000      0.0052223300    -0.0052037400     0.0005603400
