CRYSTAL
PRIMVEC
     9.8639806455    0.0000000000    0.0000000000
     0.0000000000   29.9999950877    0.0000000000
     0.0000000000    0.0000000000   15.5000027228
PRIMCOORD
 49 1
         0.0000000000     0.0000000000     0.0000000000      0.0034819800    -0.0402589000     0.0000037000
         0.0000000000     0.0000000000     0.0000000000     -0.0000865600    -0.0005344300    -0.0000008300
         0.0000000000     0.0000000000     0.0000000000      0.0022934200     0.0327964900    -0.0000008500
         0.0000000000     0.0000000000     0.0000000000      0.0000056000     0.0000783200    -0.0000021200
         0.0000000000     0.0000000000     0.0000000000     -0.0051725600    -0.0435895400     0.0000027000
         0.0000000000     0.0000000000     0.0000000000     -0.0001982300    -0.0003788500    -0.0000003400
         0.0000000000     0.0000000000     0.0000000000      0.0004349200     0.0320327000    -0.0000009500
         0.0000000000     0.0000000000     0.0000000000      0.0000053500     0.0003333700    -0.0000004900
         0.0000000000     0.0000000000     0.0000000000     -0.0029074600    -0.0481662900     0.0000034200
         0.0000000000     0.0000000000     0.0000000000      0.0001215300    -0.0003849200    -0.0000003900
         0.0000000000     0.0000000000     0.0000000000     -0.0022843300     0.0331396900    -0.0000012400
         0.0000000000     0.0000000000     0.0000000000     -0.0000878600     0.0001199300    -0.0000013000
         0.0000000000     0.0000000000     0.0000000000      0.0046012800    -0.0489556300     0.0000054300
         0.0000000000     0.0000000000     0.0000000000      0.0000944900    -0.0005364600    -0.0000002700
         0.0000000000     0.0000000000     0.0000000000     -0.0006841500     0.0337799900    -0.0000012100
         0.0000000000     0.0000000000     0.0000000000     -0.0000058500    -0.0000275900    -0.0000009400
         0.0000000000     0.0000000000     0.0000000000     -0.0000431800    -0.0000916300    -0.0000002600
         0.0000000000     0.0000000000     0.0000000000      0.0000261100     0.0000063200     0.0000006400
         0.0000000000     0.0000000000     0.0000000000     -0.0000321100    -0.0004115100     0.0000001200
         0.0000000000     0.0000000000     0.0000000000     -0.0000818000    -0.0005356700     0.0000004600
         0.0000000000     0.0000000000     0.0000000000     -0.0002650900     0.0003106700    -0.0000000900
         0.0000000000     0.0000000000     0.0000000000     -0.0004030400    -0.0016344800     0.0000014100
         0.0000000000     0.0000000000     0.0000000000     -0.0000465600    -0.0003151400    -0.0000005400
         0.0000000000     0.0000000000     0.0000000000     -0.0001685100    -0.0024244700    -0.0000002700
         0.0000000000     0.0000000000     0.0000000000      0.0004370100     0.0002283900     0.0000006000
         0.0000000000     0.0000000000     0.0000000000      0.0005629800    -0.0012242700     0.0000004200
         0.0000000000     0.0000000000     0.0000000000     -0.0000211700    -0.0002104400    -0.0000006900
         0.0000000000     0.0000000000     0.0000000000     -0.0004883700    -0.0007879300    -0.0000007000
         0.0000000000     0.0000000000     0.0000000000     -0.0002372200     0.0000318000     0.0000004600
         0.0000000000     0.0000000000     0.0000000000     -0.0000165800    -0.0001029500    -0.0000006000
         0.0000000000     0.0000000000     0.0000000000      0.0001016500    -0.0002550200    -0.0000007700
         0.0000000000     0.0000000000     0.0000000000     -0.0000703600    -0.0000043600     0.0000012500
         0.0000000000     0.0000000000     0.0000000000      0.0001550100     0.0097376900    -0.0000005000
         0.0000000000     0.0000000000     0.0000000000     -0.0002148500     0.0099719500    -0.0000005300
         0.0000000000     0.0000000000     0.0000000000     -0.0000454900     0.0100279500    -0.0000006600
         0.0000000000     0.0000000000     0.0000000000      0.0004048400     0.0098764500    -0.0000007100
         0.0000000000     0.0000000000     0.0000000000      0.0044105300     0.0012153600     0.0000001400
         0.0000000000     0.0000000000     0.0000000000     -0.0032305200     0.0064767100     0.0000001100
         0.0000000000     0.0000000000     0.0000000000      0.0021362900     0.0048591800    -0.0000024600
         0.0000000000     0.0000000000     0.0000000000     -0.0022021900    -0.0031065400    -0.0000000300
         0.0000000000     0.0000000000     0.0000000000     -0.0003395500     0.0017031200     0.0000000900
         0.0000000000     0.0000000000     0.0000000000     -0.0034641900     0.0040054600     0.0000010600
         0.0000000000     0.0000000000     0.0000000000     -0.0011394000     0.0054721000    -0.0000008300
         0.0000000000     0.0000000000     0.0000000000      0.0022037800    -0.0015862600    -0.0042997000
         0.0000000000     0.0000000000     0.0000000000     -0.0017824100     0.0011674600    -0.0000004700
         0.0000000000     0.0000000000     0.0000000000      0.0009478700    -0.0000130900    -0.0000003300
         0.0000000000     0.0000000000     0.0000000000     -0.0006179100    -0.0054156400    -0.0000002000
         0.0000000000     0.0000000000     0.0000000000      0.0017086400     0.0051674000     0.0000002700
         0.0000000000     0.0000000000     0.0000000000      0.0022042000    -0.0015864700     0.0042989900
