CRYSTAL
PRIMVEC
     9.8639806455    0.0000000000    0.0000000000
     0.0000000000   29.9999950877    0.0000000000
     0.0000000000    0.0000000000   15.5000027228
PRIMCOORD
 51 1
         0.0000000000     0.0000000000     0.0000000000      0.0031363800    -0.0417361600     0.0006162800
         0.0000000000     0.0000000000     0.0000000000     -0.0000794900    -0.0005807600    -0.0000010700
         0.0000000000     0.0000000000     0.0000000000      0.0021645900     0.0325949900    -0.0002611100
         0.0000000000     0.0000000000     0.0000000000      0.0000772600     0.0000182900    -0.0000400100
         0.0000000000     0.0000000000     0.0000000000     -0.0051449200    -0.0434259400     0.0004514000
         0.0000000000     0.0000000000     0.0000000000     -0.0002710200    -0.0003445300    -0.0000081900
         0.0000000000     0.0000000000     0.0000000000     -0.0000666200     0.0326944000    -0.0002347500
         0.0000000000     0.0000000000     0.0000000000      0.0000138100     0.0004049200    -0.0000100600
         0.0000000000     0.0000000000     0.0000000000     -0.0019335500    -0.0476183500     0.0001869000
         0.0000000000     0.0000000000     0.0000000000      0.0001422600    -0.0002971700    -0.0000211200
         0.0000000000     0.0000000000     0.0000000000     -0.0023881800     0.0329252900    -0.0002392900
         0.0000000000     0.0000000000     0.0000000000     -0.0000651400     0.0001261500    -0.0000032200
         0.0000000000     0.0000000000     0.0000000000      0.0038364600    -0.0492121000     0.0004952000
         0.0000000000     0.0000000000     0.0000000000      0.0001483700    -0.0005536400    -0.0000404100
         0.0000000000     0.0000000000     0.0000000000      0.0000605800     0.0336213700    -0.0002565600
         0.0000000000     0.0000000000     0.0000000000     -0.0000465400    -0.0000476300    -0.0000080700
         0.0000000000     0.0000000000     0.0000000000      0.0001444400    -0.0000272000    -0.0000479900
         0.0000000000     0.0000000000     0.0000000000     -0.0001148600     0.0000650100     0.0000028800
         0.0000000000     0.0000000000     0.0000000000     -0.0001508900    -0.0001615800    -0.0000164200
         0.0000000000     0.0000000000     0.0000000000     -0.0002614600    -0.0003198700     0.0000009100
         0.0000000000     0.0000000000     0.0000000000     -0.0000515100     0.0001993100    -0.0000632500
         0.0000000000     0.0000000000     0.0000000000     -0.0008164800    -0.0004089400     0.0000278800
         0.0000000000     0.0000000000     0.0000000000     -0.0000390900    -0.0003040300    -0.0000430700
         0.0000000000     0.0000000000     0.0000000000     -0.0000803900    -0.0038647000     0.0003750000
         0.0000000000     0.0000000000     0.0000000000      0.0001782500     0.0001685300    -0.0000565600
         0.0000000000     0.0000000000     0.0000000000      0.0009793800    -0.0001898700    -0.0000407400
         0.0000000000     0.0000000000     0.0000000000      0.0002424800    -0.0000520300     0.0000179800
         0.0000000000     0.0000000000     0.0000000000     -0.0001460200    -0.0006857500     0.0000050700
         0.0000000000     0.0000000000     0.0000000000     -0.0001374400    -0.0000335100    -0.0000316100
         0.0000000000     0.0000000000     0.0000000000     -0.0003249700     0.0001750200     0.0000286100
         0.0000000000     0.0000000000     0.0000000000      0.0000248300    -0.0001038700    -0.0000423800
         0.0000000000     0.0000000000     0.0000000000     -0.0000645200    -0.0000060900    -0.0000195600
         0.0000000000     0.0000000000     0.0000000000      0.0002046300     0.0098547300    -0.0001408000
         0.0000000000     0.0000000000     0.0000000000     -0.0002354800     0.0100518700    -0.0000804800
         0.0000000000     0.0000000000     0.0000000000     -0.0000840100     0.0101132200    -0.0001017000
         0.0000000000     0.0000000000     0.0000000000      0.0004047600     0.0099206400    -0.0001493700
         0.0000000000     0.0000000000     0.0000000000      0.0050404200    -0.0008585300    -0.0003255200
         0.0000000000     0.0000000000     0.0000000000     -0.0035404500     0.0066471300    -0.0002589700
         0.0000000000     0.0000000000     0.0000000000     -0.0006091400    -0.0013087100    -0.0006858000
         0.0000000000     0.0000000000     0.0000000000     -0.0029030100    -0.0035475300     0.0002487500
         0.0000000000     0.0000000000     0.0000000000     -0.0006489300     0.0010918200     0.0000422400
         0.0000000000     0.0000000000     0.0000000000     -0.0053849800     0.0036806600    -0.0008519700
         0.0000000000     0.0000000000     0.0000000000     -0.0003187500     0.0049789700    -0.0001103200
         0.0000000000     0.0000000000     0.0000000000      0.0022616000    -0.0019384500    -0.0043574800
         0.0000000000     0.0000000000     0.0000000000     -0.0018591200     0.0009164300     0.0000146800
         0.0000000000     0.0000000000     0.0000000000      0.0012444600     0.0001365700     0.0000835200
         0.0000000000     0.0000000000     0.0000000000      0.0003841800    -0.0065009800    -0.0002373300
         0.0000000000     0.0000000000     0.0000000000      0.0018460700     0.0043965500    -0.0006305700
         0.0000000000     0.0000000000     0.0000000000      0.0023594500    -0.0014528900     0.0044476600
         0.0000000000     0.0000000000     0.0000000000     -0.0045043700     0.0161617200     0.0043554400
         0.0000000000     0.0000000000     0.0000000000      0.0073766600    -0.0053627700    -0.0019846100
