CRYSTAL
PRIMVEC
     9.8639806455    0.0000000000    0.0000000000
     0.0000000000   29.9999950877    0.0000000000
     0.0000000000    0.0000000000   15.5000027228
PRIMCOORD
 52 1
         0.0000000000     0.0000000000     0.0000000000      0.0026120700    -0.0410800200    -0.0002621200
         0.0000000000     0.0000000000     0.0000000000     -0.0000603100    -0.0004700700     0.0000136600
         0.0000000000     0.0000000000     0.0000000000      0.0024180600     0.0327854400     0.0001435800
         0.0000000000     0.0000000000     0.0000000000      0.0000264900     0.0000461300    -0.0000131600
         0.0000000000     0.0000000000     0.0000000000     -0.0047676700    -0.0444095800    -0.0001202200
         0.0000000000     0.0000000000     0.0000000000     -0.0001008900    -0.0003402600     0.0000378000
         0.0000000000     0.0000000000     0.0000000000      0.0000689100     0.0320906000     0.0001565700
         0.0000000000     0.0000000000     0.0000000000      0.0000562800     0.0001777400     0.0000514100
         0.0000000000     0.0000000000     0.0000000000     -0.0015214700    -0.0481942500    -0.0004028900
         0.0000000000     0.0000000000     0.0000000000      0.0000744600    -0.0002869200    -0.0000025600
         0.0000000000     0.0000000000     0.0000000000     -0.0025736000     0.0330573200     0.0001701200
         0.0000000000     0.0000000000     0.0000000000     -0.0000592000     0.0000054700    -0.0000180000
         0.0000000000     0.0000000000     0.0000000000      0.0036796600    -0.0482937100    -0.0002943600
         0.0000000000     0.0000000000     0.0000000000      0.0000302300    -0.0004714200     0.0000239100
         0.0000000000     0.0000000000     0.0000000000     -0.0001467400     0.0340767800     0.0001938000
         0.0000000000     0.0000000000     0.0000000000     -0.0000501900     0.0000028900     0.0000075800
         0.0000000000     0.0000000000     0.0000000000      0.0001039500    -0.0001354100    -0.0000305700
         0.0000000000     0.0000000000     0.0000000000     -0.0001022300     0.0001581900    -0.0000020700
         0.0000000000     0.0000000000     0.0000000000     -0.0001527200    -0.0002156000    -0.0000160900
         0.0000000000     0.0000000000     0.0000000000     -0.0003292900    -0.0000128500    -0.0001096000
         0.0000000000     0.0000000000     0.0000000000     -0.0000148700     0.0001770800    -0.0000233900
         0.0000000000     0.0000000000     0.0000000000     -0.0002810000    -0.0005063000     0.0000785600
         0.0000000000     0.0000000000     0.0000000000      0.0000089000    -0.0001639500    -0.0000020000
         0.0000000000     0.0000000000     0.0000000000     -0.0000078000    -0.0049124000     0.0002222900
         0.0000000000     0.0000000000     0.0000000000      0.0001418500     0.0000568200    -0.0000218400
         0.0000000000     0.0000000000     0.0000000000      0.0003654800    -0.0001794600    -0.0000967300
         0.0000000000     0.0000000000     0.0000000000      0.0001391500    -0.0000334400    -0.0000359300
         0.0000000000     0.0000000000     0.0000000000     -0.0000953100    -0.0003812800    -0.0000177800
         0.0000000000     0.0000000000     0.0000000000     -0.0001463300    -0.0000576000    -0.0000317500
         0.0000000000     0.0000000000     0.0000000000     -0.0002837500     0.0002278400     0.0000231900
         0.0000000000     0.0000000000     0.0000000000     -0.0000029900    -0.0000876300     0.0000006900
         0.0000000000     0.0000000000     0.0000000000     -0.0000602100     0.0000911300     0.0000086700
         0.0000000000     0.0000000000     0.0000000000      0.0001791300     0.0097722900     0.0000447700
         0.0000000000     0.0000000000     0.0000000000     -0.0001786800     0.0100167700     0.0000709700
         0.0000000000     0.0000000000     0.0000000000     -0.0000613100     0.0100085800     0.0000903400
         0.0000000000     0.0000000000     0.0000000000      0.0003600100     0.0098362800     0.0000755300
         0.0000000000     0.0000000000     0.0000000000      0.0046626600    -0.0013374200    -0.0012653300
         0.0000000000     0.0000000000     0.0000000000     -0.0033369100     0.0066726500    -0.0005389100
         0.0000000000     0.0000000000     0.0000000000     -0.0009619000    -0.0012362500     0.0003659200
         0.0000000000     0.0000000000     0.0000000000     -0.0037229900    -0.0039500400    -0.0002343300
         0.0000000000     0.0000000000     0.0000000000     -0.0006884700     0.0009194800     0.0001440800
         0.0000000000     0.0000000000     0.0000000000     -0.0052151700     0.0028513100    -0.0025869600
         0.0000000000     0.0000000000     0.0000000000     -0.0001330500     0.0053299800    -0.0003973500
         0.0000000000     0.0000000000     0.0000000000      0.0021465700    -0.0021620900    -0.0042797600
         0.0000000000     0.0000000000     0.0000000000     -0.0016665500     0.0006576300    -0.0000300100
         0.0000000000     0.0000000000     0.0000000000      0.0012037000     0.0002541200     0.0000853100
         0.0000000000     0.0000000000     0.0000000000      0.0002905700    -0.0064489300    -0.0002515800
         0.0000000000     0.0000000000     0.0000000000      0.0018337800     0.0043464600    -0.0016103400
         0.0000000000     0.0000000000     0.0000000000      0.0022441600    -0.0013353700     0.0044009300
         0.0000000000     0.0000000000     0.0000000000      0.0021416500     0.0091853100     0.0029899500
         0.0000000000     0.0000000000     0.0000000000      0.0070021400     0.0092845500     0.0053347000
         0.0000000000     0.0000000000     0.0000000000     -0.0050682500    -0.0053865600    -0.0020387000
