CRYSTAL
PRIMVEC
 8.54286592742127 0.00000000000000 0.00000000000000
 0.00000000000000 29.99999936305714 0.00000000000000
 0.00000000000000 0.00000000000000 15.49999653852868
PRIMCOORD
 42 1
  6     1.42374298100000     2.99499287600000     5.00000000000000     0.00000000000000     0.00000000000000     0.00000000000000
  6     2.84748596200000     2.99499287600000     5.00000000000000     0.00000000000000     0.00000000000000     0.00000000000000
  6     0.71187149100000     4.22799046600000     5.00000000000000     0.00000000000000     0.00000000000000     0.00000000000000
  6     3.55935745300000     4.22799046600000     5.00000000000000     0.00000000000000     0.00000000000000     0.00000000000000
  6     1.42621764600000     5.44969292400000     5.00000619800000     0.00000089761984     0.00000660459231    -0.00000002834589
  6     2.84931137600000     5.45765992200000     5.00000873200000    -0.00003262611911     0.00001466427363     0.00000023621575
  6     0.71057982600000     6.68379035100000     5.00000799400000    -0.00002814746853     0.00000376055471    -0.00000002834589
  6     3.56166385400000     6.70273852300000     5.00001500400000    -0.00001117772919     0.00000960925663     0.00000014172945
  6     1.42194942600000     7.90976975500000     5.00000606600000    -0.00002368771521    -0.00000178579105    -0.00000000944863
  6     2.85479760500000     7.94037263100000     5.00001196500000    -0.00002425463300     0.00001009113675    -0.00000004724315
  6     0.70451490000000     9.12674284100000     4.99999775300000     0.00000754000668     0.00002211924264    -0.00000013228082
  6     3.56676680100000     9.18221029700000     5.00000625200000    -0.00001696973933     0.00001670517770    -0.00000013228082
  6     1.43581142900000    10.34465384800000     4.99999957500000     0.00000702978066     0.00000004724315    -0.00000008503767
  6     2.87613868800000    10.44092661100000     5.00000693800000    -0.00001748941398     0.00002136335225     0.00000008503767
  6     5.69497192400000     2.99499287600000     5.00000000000000     0.00000000000000     0.00000000000000     0.00000000000000
  6     7.11871490500000     2.99499287600000     5.00000000000000     0.00000000000000     0.00000000000000     0.00000000000000
  6     4.98310043400000     4.22799046600000     5.00000000000000     0.00000000000000     0.00000000000000     0.00000000000000
  6     7.83058639500000     4.22799046600000     5.00000000000000     0.00000000000000     0.00000000000000     0.00000000000000
  6     5.69281499500000     5.45696484600000     5.00001350800000    -0.00000968484567    -0.00001340760586    -0.00000022676712
  6     7.11579786800000     5.45080985800000     5.00000887400000    -0.00001057301688    -0.00001039349291    -0.00000027401027
  6     4.98103925600000     6.70031899400000     5.00001623200000    -0.00002716481102    -0.00000387393827    -0.00000020786986
  6     7.83049324200000     6.68343553000000     5.00000759700000    -0.00001931299955     0.00001095096208    -0.00000021731849
  6     5.69153475700000     7.93389499600000     5.00000882300000    -0.00001621384894     0.00002360267754    -0.00000038739383
  6     7.11497014000000     7.91018115200000     5.00000541800000     0.00000688805121     0.00000455423962    -0.00000019842123
  6     4.98418792500000     9.18120254600000     5.00000244000000    -0.00002669237952     0.00001595873593    -0.00000016062671
  6     7.82128933100000     9.13322766400000     4.99999564700000     0.00002386723918    -0.00002229876661    -0.00000024566438
  6     5.67490700700000    10.42983272300000     4.99999514100000     0.00000282514035    -0.00000158736983    -0.00000030235616
  6     7.09868802800000    10.36266353800000     4.99999081500000     0.00000499832523     0.00001071474633    -0.00000035904794
  1     0.90511317300000     2.02921292800000     5.00000000000000     0.00000000000000     0.00000000000000     0.00000000000000
  1     3.36611577100000     2.02921292800000     5.00000000000000     0.00000000000000     0.00000000000000     0.00000000000000
  1     5.17634211700000     2.02921292800000     5.00000000000000     0.00000000000000     0.00000000000000     0.00000000000000
  1     7.63734470500000     2.02921292800000     5.00000000000000     0.00000000000000     0.00000000000000     0.00000000000000
  1     8.00047704600000    14.89990481300000     5.00007324200000    -0.00001110214015    -0.00000944862992     0.00000011338356
  6     0.70111258100000    11.51122533500000     5.00000683300000    -0.00000278734583    -0.00000736993134    -0.00000028345890
  6     7.85051197800000    11.55013831200000     5.00000077300000    -0.00001812247218    -0.00003246549240    -0.00000050077739
  6     8.30636825900000    13.83579391600000     5.00005834100000    -0.00002155232485    -0.00003402451634     0.00000023621575
  6     5.80969495200000    12.89719791100000     5.00002701600000     0.00001858545505    -0.00000046298287    -0.00000031180479
  1     5.30830955500000    13.87558341200000     5.00005464200000    -0.00003423238620     0.00003718980736    -0.00000055746917
 78     1.69689358200000    13.12739429300000     5.00006341500000    -0.00001048797921    -0.00004110154015     0.00000011338356
  6     4.97150182200000    11.72962705800000     5.00001121100000     0.00001319973600     0.00003367491703    -0.00000032125342
  6     3.47917621900000    11.74600691600000     5.00002474900000     0.00001268006135     0.00000678411628    -0.00000013228082
  6     7.25260546400000    12.85075264700000     5.00002605100000    -0.00003290957801    -0.00001132890727     0.00000002834589
