CRYSTAL
PRIMVEC
 8.54286539824406 0.00000000000000 0.00000000000000
 0.00000000000000 29.99999750474448 0.00000000000000
 0.00000000000000 0.00000000000000 15.49999557840067
PRIMCOORD
 43 1
  6     1.42374284154634     2.99499277706454     4.99999986888626     0.07878483055264     0.00945778564144    -0.00000092596573
  6     2.84748568309268     2.99499277706454     4.99999986888626    -0.07945224397560     0.01023712753442    -0.00000033070205
  6     0.71187184791644     4.22799051999888     4.99999986888626     0.01995778350884    -0.02635907910092     0.00000037794520
  6     3.55935753100911     4.22799051999888     4.99999986888626    -0.01935325071799    -0.01991098444485     0.00000128501367
  6     1.42547618893564     5.45018068391791     5.00000841175166     0.00018522149230    -0.00026007353852     0.00000022676712
  6     2.84848519834427     5.45718583354447     5.00000926603820    -0.00014147433578    -0.00004928405366    -0.00000029290753
  6     0.70900827943495     6.68331596698516     5.00001610033052    -0.00004790455369     0.00014955291436     0.00000003779452
  6     3.56034850339531     6.70113296705974     5.00001353747090     0.00005405561177    -0.00001817916396     0.00000095431162
  6     1.42048202982383     7.91077024456259     5.00001268318436     0.00006655614915    -0.00006002714588     0.00000047243150
  6     2.85083192346917     7.93718222151434     5.00001097461128     0.00031449764686     0.00023452444322     0.00000046298287
  6     0.70409613183096     9.13129454972896     5.00001353747090    -0.00016015427713    -0.00003749216352     0.00000022676712
  6     3.56243979684480     9.17906112731670     5.00000841175166    -0.00018909543057    -0.00063221727651    -0.00000011338356
  6     1.42553855185305    10.35034948204683     5.00000926603820     0.00023899364517    -0.00001033680113    -0.00000062360957
  6     2.86270650637273    10.43043884515536     5.00000499460550     0.00053207124800     0.00042739932576     0.00000017007534
  6     5.69497136618535     2.99499277706454     4.99999986888626     0.07879219103535     0.01131675633486    -0.00000027401027
  6     7.11871506201823     2.99499277706454     4.99999986888626    -0.07744732029582     0.00954264378674    -0.00000069919861
  6     4.98310037255545     4.22799051999888     4.99999986888626     0.01931127045526    -0.01968801567602     0.00000153067805
  6     7.83058605564813     4.22799051999888     4.99999986888626    -0.02060608235347    -0.02690900825946     0.00000119997600
  6     5.69234443507539     5.45712774205976     5.00001268318436     0.00009263436773    -0.00017440281105    -0.00000031180479
  6     7.11549525604963     5.45165261962603     5.00001182889782    -0.00021108239239    -0.00013396267499     0.00000054802054
  6     4.97986775228876     6.70063320943394     5.00001866319014    -0.00010319793598     0.00009976808332    -0.00000048188013
  6     7.83012217805700     6.68402929624592     5.00002208033630     0.00014588684595     0.00013858305502    -0.00000030235616
  6     5.68936126647833     7.93475177630854     5.00001780890360    -0.00007190407368    -0.00011355363437     0.00000055746917
  6     7.11357140276195     7.91370642739996     5.00002293462283    -0.00010515380237     0.00003552684850    -0.00000046298287
  6     4.97979855507903     9.18169403843244     5.00001097461128    -0.00008997930272     0.00011884486712    -0.00000000944863
  6     7.81848252395190     9.13587096272279     5.00001610033052     0.00012970134290     0.00010227197024    -0.00000031180479
  6     5.66972463607392    10.42976481307544     5.00000414031896     0.00028273135307     0.00006283338896     0.00000100155477
  6     7.09614395734953    10.36891569141683     5.00000755746512    -0.00029070599672    -0.00001197141411     0.00000003779452
  1     0.90511317179780     2.02921244664111     4.99999986888626     0.00808506978954     0.01040847843800     0.00000012283219
  1     3.36611535284121     2.02921244664111     4.99999986888626    -0.00799751878471     0.01069888207857     0.00000006614041
  1     5.17634169643681     2.02921244664111     4.99999986888626     0.00794622217288     0.01063322354926     0.00000003779452
  1     7.63734473176677     2.02921244664111     4.99999986888626    -0.00809962067962     0.01049671919282     0.00000005669178
  1     7.99550948930739    14.90945377630279     5.00002891462861     0.00103341555151    -0.00339757614081    -0.00000056691780
  6     0.71920248071467    11.55214953483332     5.00000755746512    -0.00283520313666    -0.00324119186702     0.00000012283219
  6     7.85407722692022    11.54874093153942     5.00000414031896     0.00016688170163     0.00072494613054    -0.00000050077739
  6     8.27902925185777    13.84250285382757     5.00001182889782    -0.00470249807304     0.00592825938381     0.00000024566438
  6     5.79776681123588    12.90426386716154     5.00000157745934    -0.00253098559916     0.00440131354574     0.00000016062671
  1     5.28646777428558    13.87805227960929     5.00000328603242     0.00332534136508    -0.00461146997240     0.00000001889726
 78     1.72461572658018    13.22769760542560     5.00000584889204     0.00106940538287     0.00312332020878    -0.00000323143143
  6     4.96179702911185    11.72850075953582     4.99999986888626     0.00021715786143     0.00142475890549     0.00000017952397
  6     3.47978842840333    11.72445998420245     5.00000243174588     0.00203625533659    -0.00339247388065     0.00000005669178
  6     7.24008525930416    12.84607584807448     5.00000328603242    -0.00041983097319     0.00243465681713     0.00000012283219
  8     2.76264734110925    14.77989097109994     4.99996398885159     0.00208701337652     0.00681314247299    -0.00000081258217
