CRYSTAL
PRIMVEC
 9.86398072000000 0.00000000000000 0.00000000000000
 0.00000000000000 30.00000000000000 0.00000000000000
 0.00000000000000 0.00000000000000 15.50000000000000
PRIMCOORD
 46 1
  6     0.71187149045100     2.92123941883400     7.50000000000000
  6     0.71454082347500     4.36498517196700     7.49999995620000
  6     1.94486908035100     2.20936792838300     7.50000000000000
  6     1.94847520611600     5.07691369886300     7.49999960310000
  6     3.17786667025100     2.92123941883400     7.50000000000000
  6     3.17787509107300     4.36676535959300     7.49999975370000
  6     4.41086426015200     2.20936792838300     7.50000000000000
  6     4.40604719257800     5.08784551580400     7.49999959840000
  6     5.64386185005200     2.92123941883400     7.50000000000000
  6     5.63646696575400     4.37002218892200     7.49999981230000
  6     6.87685943995200     2.20936792838300     7.50000000000000
  6     6.87016795738500     5.07564345030500     7.49999953380000
  6     8.10985702995200     2.92123941883400     7.50000000000000
  6     8.10543750126000     4.36402878248900     7.49999989740000
  6     9.34285461985200     2.20936792838300     7.50000000000000
  6     9.33879403187200     5.06725694063800     7.49999980730000
  6     0.71284648153000     7.20459891879000     7.49999915890000
  6     0.70446467440100     8.62506170253000     7.49999825530000
  6     1.95222182420100     6.51838627047300     7.49999924370000
  6     1.90014182200100     9.38605241960000     7.49999675230000
  6     3.16911306360900     7.26721444955900     7.49999828430000
  6     3.16189152999800     8.72922224323300     7.49999827410000
  6     4.40279881901200     6.53618610614300     7.49999884550000
  6     4.42534123199100     9.43326510753000     7.50000204880000
  6     5.63495910863700     7.24075607770500     7.49999834460000
  6     5.63555318554100     8.68892846085700     7.49999972590000
  6     6.86593863979200     6.51136007698600     7.49999846640000
  6     6.89655650197900     9.37071564850000     7.50000026190000
  6     8.10522742547200     7.20439203626300     7.49999808130000
  6     8.10826026297800     8.63624506902300     7.49999817710000
  6     9.33533879933900     6.49734523973600     7.49999912280000
  6     9.32917031351000     9.33954779410800     7.49999918610000
  1     1.94450233928100     1.10952337361300     7.50000000000000
  1     4.41049752027900     1.10952337361300     7.50000000000000
  1     6.87649270127700     1.10952337361300     7.50000000000000
  1     9.34248788227600     1.10952337361300     7.50000000000000
 78     1.54013222616800    11.31023939684700     7.49999402820000
  1     3.71100602635700    12.83520474837800     7.50010297640000
  6     6.98161361310100    10.80444535447900     7.50001442560000
  6     4.52414233587000    10.89479784831200     7.50002200710000
  6     8.24405737206100    11.47513140056300     7.50001749380000
  6     3.40542172838400    11.75423809443400     7.50003327810000
  1     8.22394220224000    12.58376451014800     7.50003934180000
  6     5.78724543542300    11.52194740528000     7.50004271860000
  1     5.82724258202400    12.62801476147300     7.50006935270000
  6     9.43472736667800    10.77175863557300     7.50000432260000
