CRYSTAL
PRIMVEC
 9.86398064105027 0.00000000000000 0.00000000000000
 0.00000000000000 29.99999507430976 0.00000000000000
 0.00000000000000 0.00000000000000 15.50000271584972
PRIMCOORD
 47 1
  6     0.71187164608783     2.92123956760445     7.49999975497551     0.00261059030622    -0.04430400208084     0.00044994375675
  6     0.71519876675805     4.35733552273689     7.50660073082050     0.00007952911803    -0.00047349919113    -0.00004108264289
  6     1.94486922621911     2.20936792151662     7.49999975497551    -0.00067449044677     0.03031735583838    -0.00032422973567
  6     1.94952206588749     5.06715940644364     7.51609086659525    -0.00004091256755     0.00019210954351     0.00002408455766
  6     3.17786680635039     2.92123956760445     7.49999975497551     0.00332802477598    -0.04169331728832     0.00086950071967
  6     3.18062280254150     4.35971372846945     7.50895329020339     0.00020292822477    -0.00053174999458     0.00001405956132
  6     4.41086438648168     2.20936792151662     7.49999975497551    -0.00096923100847     0.03101902054480    -0.00038311359733
  6     4.40800580489190     5.07441535060319     7.51374126640655    -0.00001308635244     0.00005369656383     0.00000788960598
  6     5.64386196661296     2.92123956760445     7.49999975497551    -0.00339317307927    -0.03972342912827     0.00058950946928
  6     5.63966385645213     4.36059359554263     7.50609569501167    -0.00002749551306    -0.00061833723916     0.00000792740050
  6     6.87685954674424     2.20936792151662     7.49999975497551     0.00076561303371     0.03170434857009    -0.00024761079566
  6     6.87387569260033     5.06259731539715     7.50919791692328     0.00007947242625     0.00014848521918    -0.00007501267293
  6     8.10985712687553     2.92123956760445     7.49999975497551    -0.00267596537663    -0.04551606287822     0.00026724504863
  6     8.10730235588949     4.35616170904061     7.50401735429061    -0.00010246094284    -0.00053435781644     0.00001311469833
  6     9.34285470700681     2.20936792151662     7.49999975497551     0.00054727409354     0.03101235926071    -0.00035614720754
  6     9.34344654584527     5.05896934331737     7.50852913903582     0.00004166845794     0.00028472501398    -0.00002244994469
  6     0.71798336849302     7.18950433155072     7.54059891289600    -0.00008484869667    -0.00007168675520    -0.00009644216558
  6     0.72048684677972     8.60620178235447     7.58637764705112    -0.00024491793613     0.00007687405302    -0.00019592679000
  6     1.95227115729216     6.49567883804569     7.53690978413625    -0.00008344085082    -0.00018105464651    -0.00001715871193
  6     1.91598354530986     9.38511200007307     7.64006236169003     0.00037592318996    -0.00453195975163     0.00001349264352
  6     3.17293974802019     7.23402146258184     7.54870118659456     0.00004240545108     0.00012763209295    -0.00004157397164
  6     3.16093824277422     8.68181215316231     7.58168535146017     0.00042977093187    -0.00009872873402    -0.00002364047206
  6     4.40489371899965     6.51265869432119     7.52924547117815    -0.00001303910929    -0.00030178923961     0.00001013837990
  6     4.41958315897030     9.36551720252962     7.53747005823666     0.00014771043152    -0.00007205525176    -0.00023438271377
  6     5.64260628187736     7.21298257827254     7.52909553867241    -0.00000304245883     0.00016238415379    -0.00000428967798
  6     5.64563255113803     8.64522171697434     7.52524365423208     0.00008521719324    -0.00000253223282    -0.00002144838992
  6     6.87324242504317     6.49127259789333     7.51866339274644     0.00007393552912    -0.00029530747949     0.00001699808522
  6     6.89675519569724     9.33422175114976     7.51419007752572     0.00017373195832     0.00001334146545    -0.00005838308427
  6     8.10999719540063     7.18627979627916     7.52468535292780    -0.00001645006469     0.00005684295759    -0.00006306960471
  6     8.11175298395474     8.61034662701984     7.53901673040118    -0.00003715201284     0.00000195586639     0.00001199976000
  6     9.34443195751131     6.48239501531639     7.52112741511057     0.00001930355092    -0.00018268925948    -0.00008971474108
  6     9.34805992959109     9.30149602257695     7.58504403686845    -0.00014336406176    -0.00012078183626    -0.00020245579328
  1     1.94450228613926     1.10952322966081     7.49999975497551     0.00025511300781     0.00949492820565    -0.00016764704065
  1     4.41049744640183     1.10952322966081     7.49999975497551     0.00002955531439     0.00934820988027    -0.00021133750540
  1     6.87649260666440     1.10952322966081     7.49999975497551    -0.00015122532185     0.00946730986040    -0.00010479475443
  1     9.34248776692696     1.10952322966081     7.49999975497551     0.00012669667858     0.00954882319071    -0.00011922281232
 78     1.51318888223064    11.33518250328421     8.10040250143108     0.00162877372271     0.00369972442836    -0.00013072179493
  1     3.42013603487523    12.62664586947112     7.03825399799311    -0.00076816416379    -0.00392055780683     0.00111645955986
  6     6.94951072335977    10.76651612814315     7.47799913255371    -0.00027613620938     0.00197556678662    -0.00020021646798
  6     4.46910724657482    10.80481204658396     7.43484816284137     0.00025306265512     0.00192224816799    -0.00036839263191
  6     8.22599168935100    11.43512632793546     7.56499845540971     0.00035531572811     0.00533221146263    -0.00032139514670
  6     3.29788284520812    11.59147436668836     7.40917419402884     0.00321343179232     0.00607246437363    -0.00328629017762
  1     8.22999745188933    12.53049277258023     7.62041725784532    -0.00016149598258    -0.00468976131991    -0.00047452909179
  6     5.73021914432923    11.45602613011771     7.38627989496096     0.00026407030898     0.00540909496428    -0.00037264451538
  1     5.74402477163444    12.55144189466569     7.31275871525290    -0.00002272395496    -0.00461227310594     0.00030207269851
  6     9.39971858260634    10.71516029933358     7.65587333625957    -0.00429291886331    -0.00066650635449    -0.00163297836302
  8     0.80140107997826    12.56363377473803     9.21955889458594    -0.00093339235518     0.00570071747810     0.00617387651855
