CRYSTAL
PRIMVEC
 9.86398064105027 0.00000000000000 0.00000000000000
 0.00000000000000 29.99999507430976 0.00000000000000
 0.00000000000000 0.00000000000000 15.50000271584972
PRIMCOORD
 48 1
  6     0.71187164608783     2.92123956760445     7.49999975497551     0.00202229026157    -0.04450710038095    -0.00028051092504
  6     0.71553611489598     4.35755647590325     7.49802991804149    -0.00004334086544    -0.00043622434610     0.00001666738318
  6     1.94486922621911     2.20936792151662     7.49999975497551    -0.00000810692447     0.03001750356790     0.00012903049017
  6     1.95131435116997     5.06985424595477     7.49718753409474    -0.00008326132685     0.00037320198454     0.00003371271155
  6     3.17786680635039     2.92123956760445     7.49999975497551     0.00430413438702    -0.04147741609467    -0.00012006374038
  6     3.18186566410228     4.36082441268963     7.49800723088601     0.00022848676870    -0.00047558733835     0.00001877442765
  6     4.41086438648168     2.20936792151662     7.49999975497551    -0.00194370600654     0.03086143629501     0.00009990981276
  6     4.40797719934804     5.07691882888989     7.49498490721759     0.00006415619715     0.00004349204352     0.00001772562973
  6     5.64386196661296     2.92123956760445     7.49999975497551    -0.00262007673066    -0.03941937221748    -0.00027912197644
  6     5.63965892446181     4.36101182832181     7.49705930234641    -0.00003885276623    -0.00056257142538     0.00004761164616
  6     6.87685954674424     2.20936792151662     7.49999975497551    -0.00003628273889     0.03176584970223     0.00015774487650
  6     6.87253221843702     5.06243949170689     7.49569807301794     0.00005710751923     0.00006189797460     0.00003738822859
  6     8.10985712687553     2.92123956760445     7.49999975497551    -0.00363415093672    -0.04540301002124    -0.00014347744532
  6     8.10639289687439     4.35520391652036     7.49797763894409    -0.00014240975014    -0.00050925280675     0.00001914292422
  6     9.34285470700681     2.20936792151662     7.49999975497551     0.00167318228332     0.03133966924973     0.00007934959406
  6     9.34360436953553     5.05627746300043     7.49621593200160    -0.00009127376502     0.00022613405985     0.00000937304088
  6     0.71633016533758     7.18586057710191     7.49251398006701    -0.00005932794726     0.00005813741989    -0.00001027066072
  6     0.71621672956021     8.59891624625299     7.50419490594214    -0.00083333136434    -0.00030384904094    -0.00008326132685
  6     1.95504490864842     6.49706275452963     7.49522657474330    -0.00012718800734    -0.00023930544996     0.00000573531836
  6     1.90957590348543     9.39409512724287     7.52662165232764    -0.00002773172881    -0.00351839577159     0.00018391758137
  6     3.17600152761117     7.24161080928707     7.49232064604645     0.00003682131079     0.00030892295520    -0.00001610046538
  6     3.16359855835312     8.69093633525529     7.49453116410811     0.00096327837162    -0.00050925280675    -0.00002934744453
  6     4.40472208573650     6.51632513592547     7.48890474955045     0.00012848246964    -0.00027665588403    -0.00000841872926
  6     4.42104204170711     9.38540890589037     7.44941233025788     0.00025214613802    -0.00023788815547    -0.00028336441127
  6     5.64220679066139     7.21835450212966     7.48161526785672    -0.00014388373641     0.00024321718275    -0.00005541621448
  6     5.64640786001642     8.65267198155252     7.45618099377377     0.00011079463443    -0.00007825355299     0.00004301961202
  6     6.87089183845641     6.49184470877051     7.48844903364483     0.00010238535380    -0.00034335376263     0.00000080313354
  6     6.90243290295423     9.33200136910746     7.44954154840428     0.00020146368713    -0.00001480600308     0.00002814746853
  6     8.10929192078479     7.18313811844498     7.48928845839739     0.00015259537319     0.00001929410229    -0.00003163401297
  6     8.11357880677139     8.60339153426984     7.48388891539448    -0.00003674572176     0.00012707462378    -0.00001254778053
  6     9.34470025778475     6.47829554496197     7.49274085162176    -0.00010731753862    -0.00020755805343    -0.00003257887596
  6     9.34545485230379     9.29927859972884     7.50092696915576     0.00022337505992    -0.00041121382271    -0.00011272215493
  1     1.94450228613926     1.10952322966081     7.49999975497551     0.00032433367060     0.00948375992509     0.00005504771791
  1     4.41049744640183     1.10952322966081     7.49999975497551     0.00001575086608     0.00930581387782     0.00002553964667
  1     6.87649260666440     1.10952322966081     7.49999975497551    -0.00021948222439     0.00939061533134     0.00006561128616
  1     9.34248776692696     1.10952322966081     7.49999975497551     0.00015849131826     0.00952188514681     0.00004827305026
 78     1.53272548228830    11.32076629557731     7.74874172759700     0.00353876701769     0.00054315449090     0.00132076728460
  1     3.61415362929824    12.70547387076408     6.97337169253047    -0.00113494107999    -0.00392604746081     0.00128191451838
  6     6.97722259057274    10.76069933875912     7.38583700223018    -0.00015881257168     0.00161176618885    -0.00000939193814
  6     4.50626584804772    10.83065271666932     7.33579801483620     0.00047792114994     0.00165233860572    -0.00012549670258
  6     8.24277623880981    11.42697966632401     7.42201216483317     0.00012135820268     0.00533598146596    -0.00040644226460
  6     3.38181151089056    11.69516650398321     7.37125507964852     0.00364940102541     0.00573288061434    -0.00368953880531
  1     8.25668839710595    12.52582513694088     7.41425414405898    -0.00050563398149    -0.00520525022240    -0.00029765073971
  6     5.76640910290318    11.45540272654120     7.26800188949219    -0.00009733978543     0.00550650089011    -0.00043509995914
  1     5.79536087248272    12.54677327262828     7.15079905791330    -0.00010866869270    -0.00462401775293     0.00052776267276
  6     9.42886565900258    10.72041780101526     7.52256558348804    -0.00491879610915    -0.00125886931000    -0.00165395432144
  8     0.84698648011281    13.12851928609938     8.25529560303943     0.00398682104845     0.01439593254466     0.00746252791006
  1     1.54460664697045    13.64873576112773     8.71630353426987    -0.00567286291710    -0.00398118966502    -0.00359907762246
