CRYSTAL
PRIMVEC
 9.86398064105027 0.00000000000000 0.00000000000000
 0.00000000000000 29.99999507430976 0.00000000000000
 0.00000000000000 0.00000000000000 15.50000271584972
PRIMCOORD
 49 1
  6     0.71187164608783     2.92123956760445     7.49999975497551     0.00270155226645    -0.04457731314988    -0.00022624744341
  6     0.71599774918998     4.35756140789357     7.49823903443108    -0.00007606147085    -0.00041845147322     0.00000494163345
  6     1.94486922621911     2.20936792151662     7.49999975497551     0.00004624159482     0.03019612046789     0.00014025546252
  6     1.95147710685055     5.06976053813868     7.49649606905180    -0.00003990156415     0.00042403561351    -0.00001279344491
  6     3.17786680635039     2.92123956760445     7.49999975497551     0.00372181532511    -0.04155716253118    -0.00021895310111
  6     3.18155692150821     4.36074944643676     7.49717372452184     0.00024897139837    -0.00042284508614     0.00000981712649
  6     4.41086438648168     2.20936792151662     7.49999975497551    -0.00127778546710     0.03099519110014     0.00013773267833
  6     4.40831947947629     5.07676100519963     7.49316894838158     0.00003564968068     0.00003528118412     0.00004967144748
  6     5.64386196661296     2.92123956760445     7.49999975497551    -0.00325099009625    -0.03978985299661    -0.00036329037176
  6     5.63936497783871     4.36110356334177     7.49614984333130    -0.00001383279420    -0.00053252478224     0.00001155567439
  6     6.87685954674424     2.20936792151662     7.49999975497551    -0.00002022951666     0.03195889466011     0.00016051332506
  6     6.87263184464149     5.06235663426951     7.49464558628354     0.00004787620780     0.00001756500302     0.00003064190683
  6     8.10985712687553     2.92123956760445     7.49999975497551    -0.00302322142342    -0.04590065046182    -0.00013489808935
  6     8.10670459866265     4.35517037898618     7.49802794524536    -0.00012242589786    -0.00050038054325    -0.00000439361291
  6     9.34285470700681     2.20936792151662     7.49999975497551     0.00093424273188     0.03155052487501     0.00009745316899
  6     9.34326998059180     5.05588684936704     7.49681960761683    -0.00009814291897     0.00018821670799     0.00003596148547
  6     0.71651363537751     7.18624034035659     7.49265108939792     0.00004131885864     0.00008076688855     0.00003367491703
  6     0.71596519805386     8.59907012435099     7.50328051493672    -0.00012186842870    -0.00024870683673     0.00001809412629
  6     1.95527967138768     6.49827701054654     7.49335340481956    -0.00007440796061    -0.00025036979559     0.00000290072939
  6     1.90901957497728     9.39128981114856     7.51686222988138     0.00017242804739    -0.00472839676765    -0.00012704627789
  6     3.17609622182533     7.24286550762461     7.48786015400056    -0.00007465362499     0.00027412365121    -0.00002705142746
  6     3.16406413823937     8.69218807439863     7.48526494069390     0.00031152132843    -0.00038965204923    -0.00000403456498
  6     4.40545793869232     6.51617816261392     7.48524225353843     0.00022271365582    -0.00020488409116    -0.00000172909928
  6     4.42324368218620     9.38633513367256     7.44120451196646     0.00069063815530    -0.00016424553388    -0.00020239910150
  6     5.64171260523128     7.21698834081088     7.47768348517319    -0.00018717735870     0.00012951237030    -0.00001802798589
  6     5.64531098536913     8.65188286310124     7.45110400293782    -0.00025447994961     0.00006743487173     0.00008452744326
  6     6.87116901631242     6.49111378780501     7.48680470807197     0.00010516325100    -0.00030319708547     0.00001569417430
  6     6.90305137454042     9.32967840166650     7.44840719063056     0.00021385084096     0.00027124181909     0.00002445305423
  6     8.11004256971158     7.18168614049462     7.48954294909793     0.00021640197104    -0.00007203635450    -0.00005541621448
  6     8.11484238269151     8.60285690651909     7.48461293157353     0.00024745016895     0.00023762359383    -0.00000835258885
  6     9.34406403103340     6.47783884265829     7.49384463105549    -0.00026338055899    -0.00011028440842    -0.00000369441430
  6     9.34393579928507     9.30091700691332     7.50375497240555    -0.00031085047571    -0.00021659094363    -0.00001168795521
  1     1.94450228613926     1.10952322966081     7.49999975497551     0.00032595883495     0.00946014779892     0.00005923346096
  1     4.41049744640183     1.10952322966081     7.49999975497551     0.00000811637310     0.00928160648797     0.00005590754323
  1     6.87649260666440     1.10952322966081     7.49999975497551    -0.00022100345381     0.00935454046231     0.00007106314562
  1     9.34248776692696     1.10952322966081     7.49999975497551     0.00017244694465     0.00949907615419     0.00004573136881
 78     1.54064132675274    11.32232579091666     7.67730184780419     0.00317620419044    -0.00192562132887     0.00048424228335
  1     3.65844783436688    12.74280607829626     7.07709440816531    -0.00070433866869    -0.00472557162730     0.00087921391123
  6     6.98064539185518    10.75662946034662     7.39092977543516    -0.00009453354234     0.00158875877500    -0.00002541681448
  6     4.51642081611768    10.83385555118347     7.33877200499947     0.00064640911865     0.00147432641805    -0.00032790525271
  6     8.24204630424237    11.42380741014985     7.43018545919234     0.00011395047682     0.00518695767488    -0.00030075933895
  6     3.40553339793422    11.70591528368776     7.37452794842522     0.00431072008208     0.00556985395372    -0.00287147642692
  1     8.24329804338572    12.52302376643883     7.41461417935238    -0.00049934119396    -0.00523137568413    -0.00013703347972
  6     5.77629478430164    11.45577953060169     7.28110026938545    -0.00034449704685     0.00548352182215    -0.00055988801448
  1     5.80617574085757    12.54851722440562     7.17982283455153    -0.00013770433244    -0.00465211797831     0.00038269785761
  6     9.43024562989426    10.72365713225778     7.52101792492545    -0.00514580889158    -0.00092379254719    -0.00106185592756
  8     0.88126874483078    13.16514227342347     8.00288028402721    -0.00145842437389     0.01045688376908     0.00234104924052
  8     1.89373336417784    14.10127743777396     8.50165246514192    -0.00497805791600     0.00969811154343     0.00222251617819
  1     1.32346902417293    14.89978541223020     8.62648705854279     0.00408149632024    -0.00563431250703    -0.00069518294629
