CRYSTAL
PRIMVEC
     8.5428654021    0.0000000000    0.0000000000
     0.0000000000   29.9999975181    0.0000000000
     0.0000000000    0.0000000000   15.4999955853
PRIMCOORD
 41 1
         0.0000000000     0.0000000000     0.0000000000      0.0808967300     0.0129079900    -0.0000004300
         0.0000000000     0.0000000000     0.0000000000     -0.0808967300     0.0129079900    -0.0000004300
         0.0000000000     0.0000000000     0.0000000000      0.0230523700    -0.0287084900    -0.0000001300
         0.0000000000     0.0000000000     0.0000000000     -0.0230523700    -0.0287084900    -0.0000001300
         0.0000000000     0.0000000000     0.0000000000      0.0001689000    -0.0000691500    -0.0000006000
         0.0000000000     0.0000000000     0.0000000000     -0.0001689000    -0.0000691500    -0.0000006000
         0.0000000000     0.0000000000     0.0000000000      0.0001892300     0.0001406100     0.0000003600
         0.0000000000     0.0000000000     0.0000000000     -0.0001892300     0.0001406100     0.0000003600
         0.0000000000     0.0000000000     0.0000000000     -0.0002890200    -0.0001528300     0.0000004500
         0.0000000000     0.0000000000     0.0000000000      0.0002890200    -0.0001528300     0.0000004500
         0.0000000000     0.0000000000     0.0000000000      0.0001761200    -0.0000874800     0.0000001800
         0.0000000000     0.0000000000     0.0000000000     -0.0001761200    -0.0000874800     0.0000001800
         0.0000000000     0.0000000000     0.0000000000     -0.0008043900    -0.0003910200     0.0000005800
         0.0000000000     0.0000000000     0.0000000000      0.0008043900    -0.0003910200     0.0000005800
         0.0000000000     0.0000000000     0.0000000000      0.0778764900     0.0152219300    -0.0000008800
         0.0000000000     0.0000000000     0.0000000000     -0.0778764900     0.0152219300    -0.0000008800
         0.0000000000     0.0000000000     0.0000000000      0.0246715800    -0.0270641500     0.0000005800
         0.0000000000     0.0000000000     0.0000000000     -0.0246715800    -0.0270641500     0.0000005800
         0.0000000000     0.0000000000     0.0000000000      0.0001104500    -0.0001467400    -0.0000000000
         0.0000000000     0.0000000000     0.0000000000     -0.0001104500    -0.0001467400    -0.0000000000
         0.0000000000     0.0000000000     0.0000000000      0.0002166500     0.0002105300     0.0000005300
         0.0000000000     0.0000000000     0.0000000000     -0.0002166500     0.0002105300     0.0000005300
         0.0000000000     0.0000000000     0.0000000000     -0.0003005200    -0.0001880200     0.0000006900
         0.0000000000     0.0000000000     0.0000000000      0.0003005200    -0.0001880200     0.0000006900
         0.0000000000     0.0000000000     0.0000000000     -0.0002122600     0.0001466900    -0.0000005800
         0.0000000000     0.0000000000     0.0000000000      0.0002122600     0.0001466900    -0.0000005800
         0.0000000000     0.0000000000     0.0000000000      0.0001197700     0.0004114100     0.0000001600
         0.0000000000     0.0000000000     0.0000000000     -0.0001197700     0.0004114100     0.0000001600
         0.0000000000     0.0000000000     0.0000000000      0.0082609100     0.0111797500    -0.0000002300
         0.0000000000     0.0000000000     0.0000000000     -0.0082609100     0.0111797500    -0.0000002300
         0.0000000000     0.0000000000     0.0000000000      0.0081655800     0.0112602100    -0.0000002600
         0.0000000000     0.0000000000     0.0000000000     -0.0081655800     0.0112602100    -0.0000002600
         0.0000000000     0.0000000000     0.0000000000      0.0000000000     0.0081245800    -0.0000016200
         0.0000000000     0.0000000000     0.0000000000     -0.0016969500    -0.0006595600     0.0000003200
         0.0000000000     0.0000000000     0.0000000000      0.0031545200    -0.0038537500    -0.0000005100
         0.0000000000     0.0000000000     0.0000000000      0.0016969500    -0.0006595600     0.0000003200
         0.0000000000     0.0000000000     0.0000000000      0.0002798900    -0.0001538300    -0.0000001300
         0.0000000000     0.0000000000     0.0000000000     -0.0031545200    -0.0038537500    -0.0000005100
         0.0000000000     0.0000000000     0.0000000000     -0.0014054900     0.0059336200     0.0000007300
         0.0000000000     0.0000000000     0.0000000000     -0.0002798900    -0.0001538300    -0.0000001300
         0.0000000000     0.0000000000     0.0000000000      0.0014054900     0.0059336200     0.0000007300
