CRYSTAL
PRIMVEC
     8.5428654021    0.0000000000    0.0000000000
     0.0000000000   29.9999975181    0.0000000000
     0.0000000000    0.0000000000   15.4999955853
PRIMCOORD
 42 1
         0.0000000000     0.0000000000     0.0000000000      0.0852960100     0.0092672600    -0.0004151400
         0.0000000000     0.0000000000     0.0000000000     -0.0852960100     0.0092672600    -0.0004151400
         0.0000000000     0.0000000000     0.0000000000      0.0176015700    -0.0254174600     0.0005166500
         0.0000000000     0.0000000000     0.0000000000     -0.0176015700    -0.0254174600     0.0005166500
         0.0000000000     0.0000000000     0.0000000000      0.0002159300    -0.0002873100    -0.0000067200
         0.0000000000     0.0000000000     0.0000000000     -0.0002159300    -0.0002873100    -0.0000067200
         0.0000000000     0.0000000000     0.0000000000      0.0009353700     0.0005538700     0.0000006200
         0.0000000000     0.0000000000     0.0000000000     -0.0009353700     0.0005538700     0.0000006200
         0.0000000000     0.0000000000     0.0000000000     -0.0012564800    -0.0003966200    -0.0000633400
         0.0000000000     0.0000000000     0.0000000000      0.0012564800    -0.0003966200    -0.0000633400
         0.0000000000     0.0000000000     0.0000000000     -0.0003627100    -0.0004562000    -0.0002019000
         0.0000000000     0.0000000000     0.0000000000      0.0003627100    -0.0004562000    -0.0002019000
         0.0000000000     0.0000000000     0.0000000000     -0.0021345400     0.0014441700    -0.0004531000
         0.0000000000     0.0000000000     0.0000000000      0.0021345400     0.0014441700    -0.0004531000
         0.0000000000     0.0000000000     0.0000000000      0.0841201300     0.0106788800    -0.0004206000
         0.0000000000     0.0000000000     0.0000000000     -0.0841201300     0.0106788800    -0.0004206000
         0.0000000000     0.0000000000     0.0000000000      0.0185197400    -0.0219424600     0.0006471900
         0.0000000000     0.0000000000     0.0000000000     -0.0185197400    -0.0219424600     0.0006471900
         0.0000000000     0.0000000000     0.0000000000      0.0002430700    -0.0000251500    -0.0000377700
         0.0000000000     0.0000000000     0.0000000000     -0.0002430700    -0.0000251500    -0.0000377700
         0.0000000000     0.0000000000     0.0000000000      0.0010647100     0.0004702500     0.0000662100
         0.0000000000     0.0000000000     0.0000000000     -0.0010647100     0.0004702500     0.0000662100
         0.0000000000     0.0000000000     0.0000000000     -0.0004115700    -0.0007012500    -0.0000535000
         0.0000000000     0.0000000000     0.0000000000      0.0004115700    -0.0007012500    -0.0000535000
         0.0000000000     0.0000000000     0.0000000000     -0.0003696600     0.0003847700    -0.0000636700
         0.0000000000     0.0000000000     0.0000000000      0.0003696600     0.0003847700    -0.0000636700
         0.0000000000     0.0000000000     0.0000000000     -0.0006121600     0.0001859500     0.0002432200
         0.0000000000     0.0000000000     0.0000000000      0.0006121600     0.0001859500     0.0002432200
         0.0000000000     0.0000000000     0.0000000000      0.0085975700     0.0112032300    -0.0000721900
         0.0000000000     0.0000000000     0.0000000000     -0.0085975700     0.0112032300    -0.0000721900
         0.0000000000     0.0000000000     0.0000000000      0.0084937500     0.0113103700    -0.0000805500
         0.0000000000     0.0000000000     0.0000000000     -0.0084937500     0.0113103700    -0.0000805500
         0.0000000000     0.0000000000     0.0000000000      0.0000000000     0.0016882100    -0.0065016100
         0.0000000000     0.0000000000     0.0000000000     -0.0029612500    -0.0038717600     0.0009702700
         0.0000000000     0.0000000000     0.0000000000      0.0034169700    -0.0041545200    -0.0001162000
         0.0000000000     0.0000000000     0.0000000000      0.0029612500    -0.0038717600     0.0009702700
         0.0000000000     0.0000000000     0.0000000000     -0.0001445000     0.0004065800    -0.0001152600
         0.0000000000     0.0000000000     0.0000000000     -0.0034169700    -0.0041545200    -0.0001162000
         0.0000000000     0.0000000000     0.0000000000     -0.0009176600     0.0059186800    -0.0000608800
         0.0000000000     0.0000000000     0.0000000000      0.0001445000     0.0004065800    -0.0001152600
         0.0000000000     0.0000000000     0.0000000000      0.0009176600     0.0059186800    -0.0000608800
         0.0000000000     0.0000000000     0.0000000000      0.0000000000     0.0091692200     0.0059349600
