CRYSTAL
PRIMVEC
 9.86398064105027 0.00000000000000 0.00000000000000
 0.00000000000000 29.99999507430976 0.00000000000000
 0.00000000000000 0.00000000000000 15.50000271584972
PRIMCOORD
 47 1
  6     0.71187149000000     2.92123941900000     5.00000000000000     0.00000000000000     0.00000000000000     0.00000000000000
  6     0.71435156800000     4.35840324100000     5.00000286100000     0.00000435581839    -0.00001214148945     0.00000030235616
  6     1.94486908000000     2.20936792800000     5.00000000000000     0.00000000000000     0.00000000000000     0.00000000000000
  6     1.95037365400000     5.06276817000000     5.00000216800000    -0.00001599653045     0.00001979487968     0.00000021731849
  6     3.17786667000000     2.92123941900000     5.00000000000000     0.00000000000000     0.00000000000000     0.00000000000000
  6     3.18169253000000     4.36068363500000     4.99999941200000     0.00001080923263     0.00000087872258    -0.00000008503767
  6     4.41086426000000     2.20936792800000     5.00000000000000     0.00000000000000     0.00000000000000     0.00000000000000
  6     4.41083031800000     5.07557716300000     4.99999728000000     0.00000295742116     0.00000800298954     0.00000000944863
  6     5.64386185000000     2.92123941900000     5.00000000000000     0.00000000000000     0.00000000000000     0.00000000000000
  6     5.63996332700000     4.36068163200000     4.99999916100000    -0.00000150233216     0.00000383614375     0.00000004724315
  6     6.87685944000000     2.20936792800000     5.00000000000000     0.00000000000000     0.00000000000000     0.00000000000000
  6     6.87128809400000     5.06276913500000     5.00000072400000     0.00001687525304     0.00001511780787     0.00000032125342
  6     8.10985703000000     2.92123941900000     5.00000000000000     0.00000000000000     0.00000000000000     0.00000000000000
  6     8.10729962400000     4.35840275200000     5.00000031100000     0.00001483434897    -0.00001037459565     0.00000049132876
  6     9.34285462000000     2.20936792800000     5.00000000000000     0.00000000000000     0.00000000000000     0.00000000000000
  6     9.34282107700000     5.06126261000000     5.00000218300000     0.00000076533902    -0.00000665183546     0.00000050077739
  6     0.72343635200000     7.18648394000000     5.00000233000000     0.00000301411294    -0.00000809747584     0.00000061416094
  6     0.72927386900000     8.60817006100000     5.00001159700000     0.00000051022602    -0.00003634887930     0.00000028345890
  6     1.95563328200000     6.49282602700000     4.99999992600000     0.00003225762254     0.00001113048604     0.00000050077739
  6     1.93310498000000     9.37295579200000     5.00000963000000    -0.00001391783187    -0.00000054802054     0.00000006614041
  6     3.17741406800000     7.22519498100000     4.99999824800000    -0.00000639672246     0.00000699198614     0.00000037794520
  6     3.17431204000000     8.66899997900000     5.00000147000000     0.00000402511635    -0.00000126611641     0.00000018897260
  6     4.41084273400000     6.51542774000000     4.99999528800000     0.00000201255817     0.00002179798922     0.00000012283219
  6     4.41091257100000     9.37724235500000     5.00000209400000     0.00001154622576     0.00001171630110    -0.00000005669178
  6     5.64428724100000     7.22518455300000     4.99999502600000     0.00002504831792     0.00001090371893     0.00000003779452
  6     5.64748692700000     8.66898221100000     4.99999754300000    -0.00001444695515     0.00000135115408    -0.00000009448630
  6     6.86605267600000     6.49282412500000     4.99999959000000    -0.00000988326690     0.00000770063338     0.00000034015068
  6     6.88872607500000     9.37291543300000     5.00000383200000     0.00001270840724     0.00000810692447    -0.00000014172945
  6     8.09827892700000     7.18647248200000     5.00000254200000    -0.00000510226016     0.00000080313354     0.00000048188013
  6     8.09253405400000     8.60815745700000     5.00000691100000     0.00000221097940    -0.00004438021473     0.00000001889726
  6     9.34283495300000     6.48905431200000     5.00000215900000     0.00001594928730    -0.00004812187218     0.00000068030135
  6     9.34290240300000     9.25073480300000     5.00001492100000    -0.00000257002734     0.00000870218816    -0.00000014172945
  1     1.94450233900000     1.10952337400000     5.00000000000000     0.00000000000000     0.00000000000000     0.00000000000000
  1     4.41049752000000     1.10952337400000     5.00000000000000     0.00000000000000     0.00000000000000     0.00000000000000
  1     6.87649270100000     1.10952337400000     5.00000000000000     0.00000000000000     0.00000000000000     0.00000000000000
  1     9.34248788200000     1.10952337400000     5.00000000000000     0.00000000000000     0.00000000000000     0.00000000000000
  6     6.89725254400000    10.84800565500000     5.00001031000000     0.00000575421562     0.00001335091408    -0.00000001889726
  1     5.64126246100000    12.61018695300000     5.00003009000000    -0.00001317139011     0.00001497607842    -0.00000003779452
  6     8.19460093500000    11.43596250800000     5.00001376600000     0.00001763114343     0.00000411960264    -0.00000009448630
  6     5.65210312600000    11.51261485800000     5.00001756800000    -0.00000481880126    -0.00003616935533    -0.00000005669178
  6     0.62730949300000    11.43598441800000     5.00002557000000    -0.00002348929398     0.00000608491767    -0.00000032125342
  6     3.16986381100000    11.51264484500000     5.00001302500000    -0.00000731323956    -0.00002836478702    -0.00000010393493
  6     9.34294223300000    10.64147351100000     5.00001931900000    -0.00000218263351     0.00001405956132    -0.00000051967465
  6     1.92467056000000    10.84806963800000     5.00001432700000    -0.00002161846525     0.00000028345890    -0.00000025511301
 78     9.34292935600000    13.06666991000000     5.00004510700000    -0.00000402511635    -0.00001835868793     0.00000075589039
  6     4.41096677500000    10.82486305000000     5.00001045300000    -0.00000804078406     0.00002051297555    -0.00000008503767
  1     3.18091185600000    12.61021917700000     5.00002493000000    -0.00002141059540     0.00000941083540    -0.00000018897260
