CRYSTAL
PRIMVEC
 9.86398064105027 0.00000000000000 0.00000000000000
 0.00000000000000 29.99999507430976 0.00000000000000
 0.00000000000000 0.00000000000000 15.50000271584972
PRIMCOORD
 45 1
  6     0.71187149000000     2.92123941900000     5.00000000000000     0.00000000000000     0.00000000000000     0.00000000000000
  6     0.71206210900000     4.35700728300000     5.00000794100000     0.00000125666778     0.00000254168145     0.00000024566438
  6     1.94486908000000     2.20936792800000     5.00000000000000     0.00000000000000     0.00000000000000     0.00000000000000
  6     1.95034486900000     5.05977693700000     5.00001007100000    -0.00001910512970    -0.00003701028339     0.00000031180479
  6     3.17786667000000     2.92123941900000     5.00000000000000     0.00000000000000     0.00000000000000     0.00000000000000
  6     3.18210820800000     4.35873726800000     5.00000779100000     0.00000728489367     0.00001713981467     0.00000002834589
  6     4.41086426000000     2.20936792800000     5.00000000000000     0.00000000000000     0.00000000000000     0.00000000000000
  6     4.41539026400000     5.07072942200000     5.00001221700000    -0.00000226767118    -0.00000919351691    -0.00000006614041
  6     5.64386185000000     2.92123941900000     5.00000000000000     0.00000000000000     0.00000000000000     0.00000000000000
  6     5.64405006200000     4.36127931600000     5.00001253200000    -0.00000558414028     0.00003499772522    -0.00000012283219
  6     6.87685944000000     2.20936792800000     5.00000000000000     0.00000000000000     0.00000000000000     0.00000000000000
  6     6.87281742800000     5.07071663700000     5.00001635700000     0.00001408790721    -0.00000239050337     0.00000001889726
  6     8.10985703000000     2.92123941900000     5.00000000000000     0.00000000000000     0.00000000000000     0.00000000000000
  6     8.10599556000000     4.35873436200000     5.00001019900000    -0.00001103599975     0.00001813192081     0.00000019842123
  6     9.34285462000000     2.20936792800000     5.00000000000000     0.00000000000000     0.00000000000000     0.00000000000000
  6     9.33788460800000     5.05976494700000     5.00001228000000     0.00001785791055    -0.00003595203684     0.00000024566438
  6     0.71237160700000     7.17652881100000     5.00000733700000    -0.00000324088006    -0.00000988326690     0.00000033070205
  6     0.71256256000000     8.58689555700000     5.00000002100000    -0.00002663568774     0.00001152732850     0.00000013228082
  6     1.95498923300000     6.48705486500000     5.00000663800000    -0.00000512115742     0.00000442195880     0.00000034959931
  6     1.92970148200000     9.29230635300000     4.99998774800000    -0.00000658569505     0.00000959980800    -0.00000007558904
  6     3.18525760000000     7.20583089700000     4.99999810700000    -0.00002391448233     0.00002715536239     0.00000006614041
  6     3.18919533900000     8.63770360100000     4.99998430900000    -0.00001304855792    -0.00003361822525    -0.00000012283219
  6     4.41967508000000     6.50505731500000     5.00000439100000     0.00000159681846     0.00001692249619    -0.00000021731849
  6     4.40782031800000     9.38811791600000     4.99996935600000    -0.00001622329757     0.00002775062607    -0.00000038739383
  6     5.64435012200000     7.22948131500000     4.99999909300000     0.00000073699313     0.00005900669384    -0.00000072754450
  6     5.64453606900000     8.67830250900000     4.99997877300000    -0.00002141059540     0.00001207534904    -0.00000028345890
  6     6.86891411500000     6.50504220200000     5.00001043300000    -0.00001696973933     0.00002073974267    -0.00000022676712
  6     6.88136527700000     9.38801362600000     4.99997485800000    -0.00001763114343     0.00003723705051    -0.00000057636643
  6     8.10345889500000     7.20577818600000     5.00000668900000     0.00002266726318     0.00003010333492     0.00000018897260
  6     8.09989939500000     8.63761816800000     4.99999182000000    -0.00002883721851    -0.00002433022204    -0.00000023621575
  6     9.33362953900000     6.48703846100000     5.00001120300000    -0.00000568807521     0.00000702033203     0.00000048188013
  6     9.35945279600000     9.29223234200000     4.99999192400000    -0.00002705142746     0.00001517449965    -0.00000005669178
  1     1.94450233900000     1.10952337400000     5.00000000000000     0.00000000000000     0.00000000000000     0.00000000000000
  1     4.41049752000000     1.10952337400000     5.00000000000000     0.00000000000000     0.00000000000000     0.00000000000000
  1     6.87649270100000     1.10952337400000     5.00000000000000     0.00000000000000     0.00000000000000     0.00000000000000
  1     9.34248788200000     1.10952337400000     5.00000000000000     0.00000000000000     0.00000000000000     0.00000000000000
  1     5.64515189400000    12.63464498000000     4.99991991600000    -0.00005722090279    -0.00003972204018    -0.00000017007534
  6     6.87213418500000    10.85687556700000     4.99995034700000    -0.00003171905064     0.00001833034204    -0.00000041573972
 78     0.71266683700000    12.15104052600000     4.99993512600000    -0.00001600597908    -0.00008370541245     0.00000034959931
  6     2.02759025900000    10.68967679200000     4.99996314200000     0.00004108264289    -0.00000794629776    -0.00000007558904
  6     9.26176861200000    10.68960207000000     4.99997175300000    -0.00006993875866    -0.00000762504434    -0.00000027401027
  6     8.19307983800000    11.41923372400000     4.99995765000000    -0.00004352983804     0.00004648725920    -0.00000018897260
  6     3.09628989600000    11.41934274200000     4.99993705400000     0.00000339205814     0.00001263281820     0.00000017007534
  6     5.64476922000000    11.53936067200000     4.99993206400000    -0.00001840593108    -0.00005839253290    -0.00000021731849
  6     4.41725830400000    10.85703960400000     4.99994384700000     0.00000253223282     0.00000093541436    -0.00000049132876
