CRYSTAL
PRIMVEC
     9.8639806455    0.0000000000    0.0000000000
     0.0000000000   29.9999950877    0.0000000000
     0.0000000000    0.0000000000   15.5000027228
PRIMCOORD
 53 1
         0.0000000000     0.0000000000     0.0000000000     -0.0061901500    -0.0439535500     0.0000307000
         0.0000000000     0.0000000000     0.0000000000     -0.0000641900    -0.0003923800    -0.0000144000
         0.0000000000     0.0000000000     0.0000000000     -0.0016682000     0.0342584200    -0.0001878900
         0.0000000000     0.0000000000     0.0000000000      0.0000437200     0.0001776200    -0.0000250800
         0.0000000000     0.0000000000     0.0000000000      0.0009156400    -0.0516266600    -0.0000931900
         0.0000000000     0.0000000000     0.0000000000     -0.0000263000    -0.0003866500    -0.0000042700
         0.0000000000     0.0000000000     0.0000000000     -0.0029988900     0.0343861400     0.0002151000
         0.0000000000     0.0000000000     0.0000000000     -0.0000242300     0.0001248000    -0.0000145100
         0.0000000000     0.0000000000     0.0000000000      0.0049705200    -0.0469241800    -0.0003015500
         0.0000000000     0.0000000000     0.0000000000      0.0001077000    -0.0004747100     0.0000133200
         0.0000000000     0.0000000000     0.0000000000      0.0018191000     0.0345365600    -0.0001518700
         0.0000000000     0.0000000000     0.0000000000     -0.0000681400     0.0001059000     0.0000176800
         0.0000000000     0.0000000000     0.0000000000      0.0002435000    -0.0441204800     0.0003773500
         0.0000000000     0.0000000000     0.0000000000      0.0000034200    -0.0004402400    -0.0000014700
         0.0000000000     0.0000000000     0.0000000000      0.0025954200     0.0333184500     0.0001104700
         0.0000000000     0.0000000000     0.0000000000      0.0000881000     0.0001228600     0.0000223900
         0.0000000000     0.0000000000     0.0000000000     -0.0000178000     0.0000306400     0.0001080500
         0.0000000000     0.0000000000     0.0000000000     -0.0000373600     0.0001971200     0.0001522200
         0.0000000000     0.0000000000     0.0000000000      0.0000375400    -0.0002247800     0.0000012700
         0.0000000000     0.0000000000     0.0000000000      0.0000798600     0.0001465100    -0.0000005400
         0.0000000000     0.0000000000     0.0000000000      0.0000333900     0.0000388300     0.0000694400
         0.0000000000     0.0000000000     0.0000000000     -0.0000344000     0.0000720700     0.0000360100
         0.0000000000     0.0000000000     0.0000000000      0.0000592300    -0.0001258600    -0.0000090300
         0.0000000000     0.0000000000     0.0000000000     -0.0002463200     0.0001737700     0.0001161200
         0.0000000000     0.0000000000     0.0000000000     -0.0000565300     0.0000500400    -0.0001199000
         0.0000000000     0.0000000000     0.0000000000      0.0005017000    -0.0002596000     0.0001569100
         0.0000000000     0.0000000000     0.0000000000     -0.0000409800     0.0000020000     0.0000801000
         0.0000000000     0.0000000000     0.0000000000      0.0006854800    -0.0042223600     0.0009788900
         0.0000000000     0.0000000000     0.0000000000      0.0000534900     0.0002512300    -0.0000056900
         0.0000000000     0.0000000000     0.0000000000     -0.0003469900    -0.0008166800     0.0004543600
         0.0000000000     0.0000000000     0.0000000000     -0.0000219100    -0.0003053500    -0.0000867100
         0.0000000000     0.0000000000     0.0000000000      0.0001247600    -0.0000153300     0.0010741800
         0.0000000000     0.0000000000     0.0000000000     -0.0003178700     0.0099326800    -0.0000085400
         0.0000000000     0.0000000000     0.0000000000      0.0001377100     0.0099611700     0.0000722000
         0.0000000000     0.0000000000     0.0000000000      0.0004168700     0.0098462900    -0.0000268800
         0.0000000000     0.0000000000     0.0000000000      0.0000528200     0.0097373800    -0.0000246500
         0.0000000000     0.0000000000     0.0000000000     -0.0003896400    -0.0009783100     0.0007280700
         0.0000000000     0.0000000000     0.0000000000     -0.0020935500     0.0031013400     0.0037490500
         0.0000000000     0.0000000000     0.0000000000      0.0045550300     0.0020858900    -0.0032909400
         0.0000000000     0.0000000000     0.0000000000     -0.0040764400     0.0038052600    -0.0023628200
         0.0000000000     0.0000000000     0.0000000000     -0.0041510500     0.0066436100     0.0015466300
         0.0000000000     0.0000000000     0.0000000000      0.0047417800    -0.0010915200     0.0029342200
         0.0000000000     0.0000000000     0.0000000000     -0.0017122300     0.0048183800     0.0025149700
         0.0000000000     0.0000000000     0.0000000000     -0.0001293200     0.0010341300     0.0007497800
         0.0000000000     0.0000000000     0.0000000000     -0.0000185300    -0.0016382900    -0.0048605100
         0.0000000000     0.0000000000     0.0000000000      0.0059262800    -0.0025177000    -0.0008242000
         0.0000000000     0.0000000000     0.0000000000      0.0029026500     0.0054200500    -0.0032272000
         0.0000000000     0.0000000000     0.0000000000     -0.0001110500     0.0033606600     0.0044774500
         0.0000000000     0.0000000000     0.0000000000     -0.0001366000    -0.0041080500    -0.0000103800
         0.0000000000     0.0000000000     0.0000000000     -0.0007384700    -0.0053091200    -0.0007748800
         0.0000000000     0.0000000000     0.0000000000     -0.0049623400    -0.0013005300     0.0010708200
         0.0000000000     0.0000000000     0.0000000000     -0.0023026600     0.0021058400    -0.0016858000
         0.0000000000     0.0000000000     0.0000000000      0.0018864500     0.0013866900    -0.0037448200
