CRYSTAL
PRIMVEC
     9.8639806455    0.0000000000    0.0000000000
     0.0000000000   29.9999950877    0.0000000000
     0.0000000000    0.0000000000   15.5000027228
PRIMCOORD
 53 1
         0.0000000000     0.0000000000     0.0000000000     -0.0040932900    -0.0399196800    -0.0028048700
         0.0000000000     0.0000000000     0.0000000000     -0.0002114600    -0.0007583100     0.0000719900
         0.0000000000     0.0000000000     0.0000000000     -0.0017457400     0.0335287800     0.0014582300
         0.0000000000     0.0000000000     0.0000000000     -0.0002296200     0.0001621400     0.0014139600
         0.0000000000     0.0000000000     0.0000000000     -0.0045497000    -0.0495609800    -0.0043870800
         0.0000000000     0.0000000000     0.0000000000     -0.0005018500    -0.0005921600     0.0005566200
         0.0000000000     0.0000000000     0.0000000000      0.0016721400     0.0330958000     0.0017084400
         0.0000000000     0.0000000000     0.0000000000     -0.0003308500    -0.0003424600     0.0014016600
         0.0000000000     0.0000000000     0.0000000000     -0.0000432600    -0.0480581000    -0.0043511900
         0.0000000000     0.0000000000     0.0000000000      0.0000376900    -0.0006099700     0.0012599300
         0.0000000000     0.0000000000     0.0000000000      0.0016014900     0.0318225300     0.0014109700
         0.0000000000     0.0000000000     0.0000000000      0.0004558600     0.0008940200    -0.0001070500
         0.0000000000     0.0000000000     0.0000000000      0.0033600400    -0.0435888000    -0.0015579300
         0.0000000000     0.0000000000     0.0000000000      0.0005949900    -0.0007027400     0.0000747000
         0.0000000000     0.0000000000     0.0000000000     -0.0015673000     0.0322151800     0.0012908100
         0.0000000000     0.0000000000     0.0000000000      0.0005667500    -0.0005493200    -0.0004577900
         0.0000000000     0.0000000000     0.0000000000     -0.0004646400    -0.0002743500     0.0003516400
         0.0000000000     0.0000000000     0.0000000000     -0.0000535400    -0.0001179300     0.0009116400
         0.0000000000     0.0000000000     0.0000000000     -0.0003908200    -0.0006121900     0.0014744000
         0.0000000000     0.0000000000     0.0000000000     -0.0001015600    -0.0004994000    -0.0010987700
         0.0000000000     0.0000000000     0.0000000000      0.0002423100     0.0000213900    -0.0003179300
         0.0000000000     0.0000000000     0.0000000000      0.0000297300     0.0000219500    -0.0016382600
         0.0000000000     0.0000000000     0.0000000000     -0.0004436700    -0.0005998700     0.0006938000
         0.0000000000     0.0000000000     0.0000000000     -0.0002083800     0.0000311800    -0.0005218500
         0.0000000000     0.0000000000     0.0000000000     -0.0002722000     0.0006199300     0.0010705000
         0.0000000000     0.0000000000     0.0000000000     -0.0011356100     0.0000233800     0.0008546000
         0.0000000000     0.0000000000     0.0000000000      0.0007768700    -0.0002052300    -0.0005921900
         0.0000000000     0.0000000000     0.0000000000      0.0010783800    -0.0021848100    -0.0007239400
         0.0000000000     0.0000000000     0.0000000000      0.0008851700    -0.0000616600    -0.0013787400
         0.0000000000     0.0000000000     0.0000000000      0.0012113300     0.0001631000     0.0007486600
         0.0000000000     0.0000000000     0.0000000000      0.0002940300    -0.0004393800    -0.0013221200
         0.0000000000     0.0000000000     0.0000000000      0.0001380700     0.0008895000     0.0021783000
         0.0000000000     0.0000000000     0.0000000000     -0.0004659200     0.0098953800     0.0007741000
         0.0000000000     0.0000000000     0.0000000000      0.0000465800     0.0100156100     0.0009819800
         0.0000000000     0.0000000000     0.0000000000      0.0003324500     0.0100342800     0.0006756300
         0.0000000000     0.0000000000     0.0000000000     -0.0000645100     0.0098148600     0.0005435100
         0.0000000000     0.0000000000     0.0000000000     -0.0022835700    -0.0013840000    -0.0005005300
         0.0000000000     0.0000000000     0.0000000000     -0.0012191700     0.0037516700     0.0009542500
         0.0000000000     0.0000000000     0.0000000000     -0.0013535200    -0.0023991600    -0.0000422700
         0.0000000000     0.0000000000     0.0000000000     -0.0050042100     0.0071331600    -0.0074152500
         0.0000000000     0.0000000000     0.0000000000     -0.0043238000     0.0077784200    -0.0002176700
         0.0000000000     0.0000000000     0.0000000000      0.0055325000    -0.0039440800     0.0086515800
         0.0000000000     0.0000000000     0.0000000000     -0.0022688900     0.0057795500    -0.0001767600
         0.0000000000     0.0000000000     0.0000000000     -0.0007515300     0.0009356300     0.0000782300
         0.0000000000     0.0000000000     0.0000000000      0.0091488300     0.0003708000    -0.0047650000
         0.0000000000     0.0000000000     0.0000000000      0.0083882200    -0.0023368600     0.0010994700
         0.0000000000     0.0000000000     0.0000000000      0.0056568500     0.0020050500     0.0034813700
         0.0000000000     0.0000000000     0.0000000000     -0.0090776600     0.0006016400     0.0086435900
         0.0000000000     0.0000000000     0.0000000000      0.0017328800    -0.0032226200    -0.0021508300
         0.0000000000     0.0000000000     0.0000000000      0.0010127300    -0.0048864000    -0.0005181300
         0.0000000000     0.0000000000     0.0000000000     -0.0040802900    -0.0002399500    -0.0019035600
         0.0000000000     0.0000000000     0.0000000000     -0.0013164500     0.0069795600    -0.0204281800
         0.0000000000     0.0000000000     0.0000000000      0.0037571200    -0.0004941400     0.0145632900
