CRYSTAL
PRIMVEC
     9.8639806455    0.0000000000    0.0000000000
     0.0000000000   29.9999950877    0.0000000000
     0.0000000000    0.0000000000   15.5000027228
PRIMCOORD
 54 1
         0.0000000000     0.0000000000     0.0000000000     -0.0039224700    -0.0425364600     0.0002306700
         0.0000000000     0.0000000000     0.0000000000     -0.0003369500    -0.0005291100     0.0001145100
         0.0000000000     0.0000000000     0.0000000000     -0.0008761900     0.0332667200    -0.0002195200
         0.0000000000     0.0000000000     0.0000000000     -0.0008731000    -0.0010167300     0.0000480100
         0.0000000000     0.0000000000     0.0000000000     -0.0039708300    -0.0518412700     0.0000975500
         0.0000000000     0.0000000000     0.0000000000     -0.0009913400    -0.0028670400     0.0001094000
         0.0000000000     0.0000000000     0.0000000000     -0.0008997200     0.0338404900    -0.0001250500
         0.0000000000     0.0000000000     0.0000000000     -0.0029823200    -0.0082708300     0.0003750600
         0.0000000000     0.0000000000     0.0000000000      0.0034678400    -0.0471676700     0.0001439600
         0.0000000000     0.0000000000     0.0000000000      0.0009728700    -0.0018138100    -0.0000068900
         0.0000000000     0.0000000000     0.0000000000      0.0008420600     0.0322618300    -0.0001840900
         0.0000000000     0.0000000000     0.0000000000      0.0006629200    -0.0073434900     0.0004932700
         0.0000000000     0.0000000000     0.0000000000      0.0037840200    -0.0436730500     0.0002423600
         0.0000000000     0.0000000000     0.0000000000     -0.0008011900    -0.0010025100    -0.0000244300
         0.0000000000     0.0000000000     0.0000000000      0.0006703300     0.0327738800    -0.0001397900
         0.0000000000     0.0000000000     0.0000000000      0.0016823000    -0.0029286800     0.0001790600
         0.0000000000     0.0000000000     0.0000000000     -0.0008673400    -0.0044036300     0.0000067900
         0.0000000000     0.0000000000     0.0000000000     -0.0070817600    -0.0025902000    -0.0003444700
         0.0000000000     0.0000000000     0.0000000000     -0.0029485100    -0.0013968800     0.0002950400
         0.0000000000     0.0000000000     0.0000000000     -0.0038023200    -0.0035604300     0.0000705700
         0.0000000000     0.0000000000     0.0000000000     -0.0016820100    -0.0033837800     0.0000624400
         0.0000000000     0.0000000000     0.0000000000      0.0035886000     0.0011108000    -0.0015290600
         0.0000000000     0.0000000000     0.0000000000     -0.0058357200    -0.0059494200     0.0000223100
         0.0000000000     0.0000000000     0.0000000000      0.0055622200     0.0082899000    -0.0025440400
         0.0000000000     0.0000000000     0.0000000000      0.0017787200    -0.0022072200    -0.0037431200
         0.0000000000     0.0000000000     0.0000000000      0.0227961700     0.0110650000    -0.0008663400
         0.0000000000     0.0000000000     0.0000000000      0.0001950100    -0.0070306600     0.0002774600
         0.0000000000     0.0000000000     0.0000000000      0.0207423700     0.0015950200     0.0194393300
         0.0000000000     0.0000000000     0.0000000000     -0.0032238400    -0.0121741800    -0.0026144900
         0.0000000000     0.0000000000     0.0000000000     -0.0083233100    -0.0026140700    -0.0011381400
         0.0000000000     0.0000000000     0.0000000000      0.0034438000    -0.0051633300    -0.0002481600
         0.0000000000     0.0000000000     0.0000000000     -0.0030155400    -0.0052118400     0.0003204800
         0.0000000000     0.0000000000     0.0000000000     -0.0003723500     0.0099221800    -0.0000613000
         0.0000000000     0.0000000000     0.0000000000      0.0000305600     0.0100805800    -0.0000447900
         0.0000000000     0.0000000000     0.0000000000      0.0004207500     0.0100397400    -0.0000722000
         0.0000000000     0.0000000000     0.0000000000      0.0001653500     0.0098114700    -0.0000591800
         0.0000000000     0.0000000000     0.0000000000      0.0185417700     0.0171583800     0.0016512000
         0.0000000000     0.0000000000     0.0000000000     -0.0011153600    -0.0034546600     0.0014580300
         0.0000000000     0.0000000000     0.0000000000     -0.0039322700    -0.1137992400    -0.0176611600
         0.0000000000     0.0000000000     0.0000000000      0.1096404600     0.0387858300    -0.0255016000
         0.0000000000     0.0000000000     0.0000000000      0.0397263100     0.0128525300    -0.0131246100
         0.0000000000     0.0000000000     0.0000000000     -0.0096751700    -0.0073232100     0.0102528400
         0.0000000000     0.0000000000     0.0000000000      0.0021810500     0.0013456800     0.0004605000
         0.0000000000     0.0000000000     0.0000000000      0.0057503100     0.0007902500    -0.0011939500
         0.0000000000     0.0000000000     0.0000000000      0.0109442300    -0.0051010300    -0.0122060900
         0.0000000000     0.0000000000     0.0000000000      0.0064673800     0.0033203300    -0.0005549600
         0.0000000000     0.0000000000     0.0000000000      0.0081048000    -0.0072097800    -0.0020590300
         0.0000000000     0.0000000000     0.0000000000     -0.0336501700     0.0300503500    -0.0198716100
         0.0000000000     0.0000000000     0.0000000000     -0.0100906800     0.0016545100    -0.0307581900
         0.0000000000     0.0000000000     0.0000000000     -0.0019555300    -0.0075949500     0.0003740400
         0.0000000000     0.0000000000     0.0000000000     -0.0033450600     0.0104204200     0.0046467000
         0.0000000000     0.0000000000     0.0000000000     -0.1601673600     0.0700445600     0.0646019300
         0.0000000000     0.0000000000     0.0000000000     -0.0172102600     0.0426420200    -0.0337546800
         0.0000000000     0.0000000000     0.0000000000      0.0217864600    -0.0119633100     0.0646774700
