CRYSTAL
PRIMVEC
 9.86398064105027 0.00000000000000 0.00000000000000
 0.00000000000000 29.99999507430976 0.00000000000000
 0.00000000000000 0.00000000000000 15.50000271584972
PRIMCOORD
 47 1
  6     0.71187149000000     2.92123941900000     5.00000000000000     0.00000000000000     0.00000000000000     0.00000000000000
  6     0.70814006600000     4.35550089900000     5.00969352500000    -0.00001420129077    -0.00000506446564    -0.00000338260951
  6     1.94486908000000     2.20936792800000     5.00000000000000     0.00000000000000     0.00000000000000     0.00000000000000
  6     1.94505538500000     5.05582115500000     5.01241307800000    -0.00001890670847    -0.00000789905461    -0.00003525283823
  6     3.17786667000000     2.92123941900000     5.00000000000000     0.00000000000000     0.00000000000000     0.00000000000000
  6     3.18131390400000     4.35772622300000     5.00120955900000    -0.00002454754053    -0.00001590204415    -0.00000020786986
  6     4.41086426000000     2.20936792800000     5.00000000000000     0.00000000000000     0.00000000000000     0.00000000000000
  6     4.41709898300000     5.06793274100000     4.98928625700000    -0.00001419184214    -0.00002811912264    -0.00000157792120
  6     5.64386185000000     2.92123941900000     5.00000000000000     0.00000000000000     0.00000000000000     0.00000000000000
  6     5.64770121800000     4.36103212700000     4.98893411900000     0.00000701088340     0.00001266116409    -0.00005188242689
  6     6.87685944000000     2.20936792800000     5.00000000000000     0.00000000000000     0.00000000000000     0.00000000000000
  6     6.87431717400000     5.07674485100000     4.98387921000000    -0.00000358103074     0.00002987656780     0.00001672407496
  6     8.10985703000000     2.92123941900000     5.00000000000000     0.00000000000000     0.00000000000000     0.00000000000000
  6     8.10644766500000     4.36175732500000     4.99879935000000    -0.00001219818123     0.00001415404762     0.00001403121543
  6     9.34285462000000     2.20936792800000     5.00000000000000     0.00000000000000     0.00000000000000     0.00000000000000
  6     9.33914736500000     5.06371809200000     5.01117458700000    -0.00001229266752    -0.00000601877726     0.00000968484567
  6     0.71257764800000     7.18854997300000     5.04428696200000    -0.00000072754450    -0.00000790850324     0.00000606602041
  6     0.71728062400000     8.61282074300000     5.07853400300000    -0.00002325307823    -0.00000837148611    -0.00001171630110
  6     1.94505199100000     6.47862100700000     5.02758801700000     0.00000209759584    -0.00000589594507     0.00001106434564
  6     1.94667861100000     9.31003490700000     5.10559664200000    -0.00001657289688     0.00000246609241    -0.00001983267420
  6     3.18039916600000     7.18048977400000     5.00868632100000    -0.00000220153077     0.00000350544170     0.00000046298287
  6     3.17345854500000     8.59553194500000     5.03298336300000     0.00000415739716     0.00000993995867     0.00000708647244
  6     4.42039573000000     6.49739363900000     4.97571184400000    -0.00001532567773    -0.00002763724251    -0.00002204365360
  6     4.37353895000000     9.34598570700000     4.94998131300000     0.00001117772919     0.00000579201014     0.00002300741385
  6     5.64127042900000     7.23701781800000     4.93672908400000    -0.00001371941064    -0.00001990826324    -0.00001473986267
  6     5.63709598300000     8.69101637000000     4.87139198900000     0.00000651010601    -0.00000011338356     0.00006072634449
  6     6.87183966800000     6.51621934400000     4.96151112800000    -0.00000083147943     0.00002481210217    -0.00001592094141
  6     6.90231233800000     9.38577235300000     4.80397258900000    -0.00000390228416     0.00001256667779     0.00002977263287
  6     8.10966451500000     7.21928761300000     4.98788539000000     0.00000618885260    -0.00000504556838    -0.00000843762652
  6     8.11754565200000     8.65388810400000     4.95090154700000    -0.00002364992069    -0.00001280289354    -0.00000606602041
  6     9.33825626900000     6.49506752200000     5.02132121600000     0.00000836203748    -0.00000397787320     0.00001502332157
  6     9.36661972400000     9.33734134200000     5.02636678200000    -0.00002661679048    -0.00002775062607     0.00000205980132
  1     1.94450233900000     1.10952337400000     5.00000000000000     0.00000000000000     0.00000000000000     0.00000000000000
  1     4.41049752000000     1.10952337400000     5.00000000000000     0.00000000000000     0.00000000000000     0.00000000000000
  1     6.87649270100000     1.10952337400000     5.00000000000000     0.00000000000000     0.00000000000000     0.00000000000000
  1     9.34248788200000     1.10952337400000     5.00000000000000     0.00000000000000     0.00000000000000     0.00000000000000
  6     0.82809877600000    11.43096329800000     5.07863096500000    -0.00000691639710    -0.00000628333890    -0.00002382944466
  1     8.24890937100000    12.55007839600000     4.68136319300000     0.00004505106745    -0.00000791795187    -0.00000291017802
  6     5.86612300700000    11.55284168600000     4.00266876000000     0.00000721875326    -0.00000380779786    -0.00000677466765
  6     6.99254641000000    10.81164177300000     4.58507757500000     0.00001864214683     0.00001319973600     0.00000816361625
  6     9.42387779600000    10.76688307800000     5.00901198700000     0.00000607546904    -0.00003324028006    -0.00000790850324
  6     2.03288513700000    10.73928843900000     5.15039002300000    -0.00001285958532     0.00000573531836    -0.00001189582507
  1     0.81260875100000    12.53071136200000     5.05968705500000     0.00000611326356     0.00000112438696     0.00002141059540
  1     6.09067288800000    12.63479826900000     3.91926311000000     0.00001931299955     0.00000325032869    -0.00000964705115
 78     4.01812770800000    11.24699597100000     4.94137121100000    -0.00000216373625     0.00000437471565     0.00001477765719
  1     5.63535365400000    11.15951257100000     2.99049579400000    -0.00000991161279     0.00001643116743    -0.00004035509838
  6     8.21233144300000    11.45909683100000     4.80412880900000     0.00002308300289    -0.00000145508901     0.00000811637310
