CRYSTAL
PRIMVEC
     8.5428654021    0.0000000000    0.0000000000
     0.0000000000   29.9999975181    0.0000000000
     0.0000000000    0.0000000000   15.4999955853
PRIMCOORD
 43 1
         0.0000000000     0.0000000000     0.0000000000      0.0849760500     0.0086386300    -0.0000666600
         0.0000000000     0.0000000000     0.0000000000     -0.0850819800     0.0088259600    -0.0000243200
         0.0000000000     0.0000000000     0.0000000000      0.0198796200    -0.0256702400     0.0000366300
         0.0000000000     0.0000000000     0.0000000000     -0.0195734900    -0.0254484700    -0.0000354500
         0.0000000000     0.0000000000     0.0000000000      0.0001622700    -0.0001248500     0.0000133900
         0.0000000000     0.0000000000     0.0000000000     -0.0001439100    -0.0001385400     0.0000084300
         0.0000000000     0.0000000000     0.0000000000     -0.0001517400     0.0000563300    -0.0000064300
         0.0000000000     0.0000000000     0.0000000000      0.0001846900     0.0000412300     0.0000047600
         0.0000000000     0.0000000000     0.0000000000      0.0001889600    -0.0000932100     0.0000037400
         0.0000000000     0.0000000000     0.0000000000     -0.0002074500    -0.0000515000    -0.0000042000
         0.0000000000     0.0000000000     0.0000000000      0.0002261700     0.0000843000     0.0000131300
         0.0000000000     0.0000000000     0.0000000000     -0.0000814400     0.0000309400    -0.0000328000
         0.0000000000     0.0000000000     0.0000000000      0.0001163200    -0.0003826600    -0.0001412800
         0.0000000000     0.0000000000     0.0000000000     -0.0004741400    -0.0001468100     0.0000444500
         0.0000000000     0.0000000000     0.0000000000      0.0855928800     0.0089184800    -0.0000402200
         0.0000000000     0.0000000000     0.0000000000     -0.0857983400     0.0090589400    -0.0000407800
         0.0000000000     0.0000000000     0.0000000000      0.0202989600    -0.0202623500     0.0000786800
         0.0000000000     0.0000000000     0.0000000000     -0.0205388300    -0.0195074500     0.0000757600
         0.0000000000     0.0000000000     0.0000000000      0.0001325700    -0.0000838900     0.0000164400
         0.0000000000     0.0000000000     0.0000000000     -0.0001340000    -0.0000495200    -0.0000615100
         0.0000000000     0.0000000000     0.0000000000     -0.0001054200     0.0000424700     0.0000340600
         0.0000000000     0.0000000000     0.0000000000      0.0001033400    -0.0000058400     0.0000333900
         0.0000000000     0.0000000000     0.0000000000      0.0000620200    -0.0000128800    -0.0000339400
         0.0000000000     0.0000000000     0.0000000000     -0.0000317800     0.0000385800    -0.0000435700
         0.0000000000     0.0000000000     0.0000000000     -0.0001353500     0.0000440000    -0.0000036800
         0.0000000000     0.0000000000     0.0000000000      0.0000884900    -0.0000290600     0.0000068400
         0.0000000000     0.0000000000     0.0000000000      0.0001926500     0.0002222800    -0.0000755600
         0.0000000000     0.0000000000     0.0000000000     -0.0001734500     0.0004938200     0.0000096000
         0.0000000000     0.0000000000     0.0000000000      0.0086120300     0.0111808000     0.0000019100
         0.0000000000     0.0000000000     0.0000000000     -0.0086004900     0.0111527300     0.0000131600
         0.0000000000     0.0000000000     0.0000000000      0.0085362800     0.0112775800    -0.0000126400
         0.0000000000     0.0000000000     0.0000000000     -0.0085208100     0.0112493700    -0.0000062300
         0.0000000000     0.0000000000     0.0000000000      0.0051439000    -0.0012385100    -0.0023322400
         0.0000000000     0.0000000000     0.0000000000     -0.0024899700    -0.0015042400     0.0001359400
         0.0000000000     0.0000000000     0.0000000000      0.0033070700    -0.0039396800    -0.0000045300
         0.0000000000     0.0000000000     0.0000000000      0.0026013300    -0.0020105200     0.0000858800
         0.0000000000     0.0000000000     0.0000000000     -0.0001240000     0.0010623200    -0.0001956100
         0.0000000000     0.0000000000     0.0000000000     -0.0043260000    -0.0049040100    -0.0002199200
         0.0000000000     0.0000000000     0.0000000000     -0.0009949300     0.0057783400    -0.0001748800
         0.0000000000     0.0000000000     0.0000000000     -0.0002902100     0.0000301300    -0.0003168200
         0.0000000000     0.0000000000     0.0000000000      0.0006756400     0.0054945700    -0.0005108000
         0.0000000000     0.0000000000     0.0000000000     -0.0066634700     0.0114992600     0.0119607700
         0.0000000000     0.0000000000     0.0000000000      0.0035599300     0.0003831900    -0.0081928800
