CRYSTAL
PRIMVEC
     8.5428654021    0.0000000000    0.0000000000
     0.0000000000   29.9999975181    0.0000000000
     0.0000000000    0.0000000000   15.4999955853
PRIMCOORD
 44 1
         0.0000000000     0.0000000000     0.0000000000      0.0847962800     0.0091783400     0.0000350600
         0.0000000000     0.0000000000     0.0000000000     -0.0847483900     0.0090080300     0.0000817300
         0.0000000000     0.0000000000     0.0000000000      0.0196815900    -0.0256051200    -0.0000394800
         0.0000000000     0.0000000000     0.0000000000     -0.0201187400    -0.0254292600    -0.0000926100
         0.0000000000     0.0000000000     0.0000000000      0.0001724500    -0.0001233400     0.0000022900
         0.0000000000     0.0000000000     0.0000000000     -0.0001597900    -0.0001342200    -0.0000204200
         0.0000000000     0.0000000000     0.0000000000     -0.0000879500     0.0000727500     0.0000069500
         0.0000000000     0.0000000000     0.0000000000      0.0000798800     0.0001106700    -0.0000392800
         0.0000000000     0.0000000000     0.0000000000      0.0001830100    -0.0000845700     0.0000654400
         0.0000000000     0.0000000000     0.0000000000     -0.0001504300    -0.0001035900     0.0000422000
         0.0000000000     0.0000000000     0.0000000000     -0.0000426600     0.0000207900     0.0000275500
         0.0000000000     0.0000000000     0.0000000000     -0.0000675700     0.0000925700     0.0001495500
         0.0000000000     0.0000000000     0.0000000000      0.0001213900     0.0002865600     0.0000239300
         0.0000000000     0.0000000000     0.0000000000      0.0001936400     0.0000214400     0.0001293300
         0.0000000000     0.0000000000     0.0000000000      0.0849886700     0.0097343100     0.0000455100
         0.0000000000     0.0000000000     0.0000000000     -0.0847692700     0.0094942100     0.0000437700
         0.0000000000     0.0000000000     0.0000000000      0.0206560800    -0.0204094300    -0.0000529400
         0.0000000000     0.0000000000     0.0000000000     -0.0205700500    -0.0211889300    -0.0001020500
         0.0000000000     0.0000000000     0.0000000000      0.0001551400    -0.0000761600    -0.0000280700
         0.0000000000     0.0000000000     0.0000000000     -0.0001749800    -0.0001284500     0.0000384500
         0.0000000000     0.0000000000     0.0000000000     -0.0000389200     0.0000413200     0.0000552900
         0.0000000000     0.0000000000     0.0000000000      0.0000402000     0.0000857200     0.0000220500
         0.0000000000     0.0000000000     0.0000000000      0.0000763400    -0.0000714400    -0.0000120400
         0.0000000000     0.0000000000     0.0000000000     -0.0001278700    -0.0001446300    -0.0000281600
         0.0000000000     0.0000000000     0.0000000000     -0.0001617500     0.0001114700    -0.0000128900
         0.0000000000     0.0000000000     0.0000000000      0.0002395300     0.0001778700     0.0000101800
         0.0000000000     0.0000000000     0.0000000000      0.0001364600     0.0004670900     0.0001154300
         0.0000000000     0.0000000000     0.0000000000     -0.0000863100     0.0002072400     0.0000605300
         0.0000000000     0.0000000000     0.0000000000      0.0085302300     0.0111463000    -0.0000057100
         0.0000000000     0.0000000000     0.0000000000     -0.0085395600     0.0111784700    -0.0000044400
         0.0000000000     0.0000000000     0.0000000000      0.0084475100     0.0112378200     0.0000015500
         0.0000000000     0.0000000000     0.0000000000     -0.0084674600     0.0112639700     0.0000116800
         0.0000000000     0.0000000000     0.0000000000     -0.0056487600    -0.0014479400     0.0026934900
         0.0000000000     0.0000000000     0.0000000000     -0.0032088300    -0.0028554800     0.0002085800
         0.0000000000     0.0000000000     0.0000000000      0.0047756300    -0.0057199500     0.0008701300
         0.0000000000     0.0000000000     0.0000000000      0.0028523600    -0.0020725100    -0.0002399900
         0.0000000000     0.0000000000     0.0000000000     -0.0000165200    -0.0000397000     0.0004154700
         0.0000000000     0.0000000000     0.0000000000     -0.0032699400    -0.0040475000     0.0001295000
         0.0000000000     0.0000000000     0.0000000000     -0.0002123400     0.0054506200     0.0009587100
         0.0000000000     0.0000000000     0.0000000000      0.0006131400     0.0009408800     0.0001153200
         0.0000000000     0.0000000000     0.0000000000      0.0007370700     0.0058357000     0.0002088800
         0.0000000000     0.0000000000     0.0000000000      0.0023017800     0.0100647100    -0.0023778900
         0.0000000000     0.0000000000     0.0000000000      0.0024640800     0.0109762900    -0.0033274300
         0.0000000000     0.0000000000     0.0000000000     -0.0015743800    -0.0075229700    -0.0001851600
