CRYSTAL
PRIMVEC
 8.54286592742127 0.00000000000000 0.00000000000000
 0.00000000000000 29.99999936305714 0.00000000000000
 0.00000000000000 0.00000000000000 15.49999653852868
PRIMCOORD
 41 1
  6     1.42374298100000     2.99499287600000     5.00000000000000     0.00000000000000     0.00000000000000     0.00000000000000
  6     2.84748596200000     2.99499287600000     5.00000000000000     0.00000000000000     0.00000000000000     0.00000000000000
  6     0.71187149100000     4.22799046600000     5.00000000000000     0.00000000000000     0.00000000000000     0.00000000000000
  6     3.55935745300000     4.22799046600000     5.00000000000000     0.00000000000000     0.00000000000000     0.00000000000000
  6     1.42712365400000     5.45243183200000     5.00000362200000     0.00001676186948    -0.00001901064340    -0.00000007558904
  6     2.85000814800000     5.45733465500000     5.00000694400000     0.00003428907798     0.00002337591042     0.00000011338356
  6     0.71221239800000     6.68647629800000     5.00000271800000     0.00002358378028    -0.00004761164616    -0.00000001889726
  6     3.56254645400000     6.70192090800000     5.00001206200000    -0.00000068030135     0.00002237435565     0.00000017007534
  6     1.42738074800000     7.91913538600000     5.00000083300000     0.00002099485568    -0.00001006279086    -0.00000016062671
  6     2.85236601600000     7.93818607000000     5.00000724500000     0.00003003719451     0.00002136335225     0.00000024566438
  6     0.72325395200000     9.14296968300000     4.99999118600000     0.00002025786255    -0.00002610656447    -0.00000000944863
  6     3.56399619100000     9.18356309500000     5.00000775600000    -0.00001520284554     0.00003252218418    -0.00000014172945
  6     1.45502456200000    10.38425280100000     4.99999285400000    -0.00001330367093    -0.00002511445832     0.00000013228082
  6     2.88041164300000    10.43536051300000     5.00000532400000    -0.00003863544774     0.00002245939332    -0.00000017952397
  6     5.69497192400000     2.99499287600000     5.00000000000000     0.00000000000000     0.00000000000000     0.00000000000000
  6     7.11871490500000     2.99499287600000     5.00000000000000     0.00000000000000     0.00000000000000     0.00000000000000
  6     4.98310043400000     4.22799046600000     5.00000000000000     0.00000000000000     0.00000000000000     0.00000000000000
  6     7.83058639500000     4.22799046600000     5.00000000000000     0.00000000000000     0.00000000000000     0.00000000000000
  6     5.69380107900000     5.45684662900000     5.00000961700000    -0.00002026731118    -0.00002577586242    -0.00000010393493
  6     7.11781342400000     5.44943706900000     5.00000427100000     0.00001887836258    -0.00002728764321     0.00000009448630
  6     4.98107474900000     6.69949618600000     5.00001229300000     0.00000312749650    -0.00004810297492    -0.00000013228082
  6     7.83562470600000     6.68092125600000     5.00000434300000     0.00002387668781    -0.00000128501367     0.00000015117808
  6     5.69431853500000     7.93482816100000     5.00000682700000     0.00001868938998    -0.00004515500238    -0.00000013228082
  6     7.12453096800000     7.90805770500000     5.00000040300000     0.00002565303023    -0.00002968759521     0.00000009448630
  6     4.98472987000000     9.17286660400000     5.00000448400000    -0.00000262671912    -0.00001903898929    -0.00000027401027
  6     7.83898828400000     9.12608927900000     4.99998838800000     0.00004115823193    -0.00002528453366     0.00000004724315
  6     5.69629640200000    10.41007066400000     4.99999391500000     0.00000857935597    -0.00003196471502    -0.00000030235616
  6     7.10046899500000    10.33621050600000     4.99998296600000    -0.00000102045203     0.00002847817058    -0.00000011338356
  1     0.90511317300000     2.02921292800000     5.00000000000000     0.00000000000000     0.00000000000000     0.00000000000000
  1     3.36611577100000     2.02921292800000     5.00000000000000     0.00000000000000     0.00000000000000     0.00000000000000
  1     5.17634211700000     2.02921292800000     5.00000000000000     0.00000000000000     0.00000000000000     0.00000000000000
  1     7.63734470500000     2.02921292800000     5.00000000000000     0.00000000000000     0.00000000000000     0.00000000000000
  6     5.89062348000000    12.89913439100000     5.00001581600000     0.00002505776655    -0.00000962815389     0.00000003779452
  6     7.82188436700000    11.53140400400000     4.99998563200000     0.00000192752050    -0.00000992106141    -0.00000037794520
  6     2.83185153100000    12.89935674900000     5.00003645600000     0.00000772897927     0.00002772228018    -0.00000005669178
  1     5.34943678300000    13.85548798100000     5.00003516000000     0.00006272000540     0.00007301901201     0.00000009448630
  6     3.59104555300000    11.72806136700000     5.00001479700000    -0.00004542901265     0.00000714316422    -0.00000013228082
  6     5.07127149100000    11.71069875400000     5.00000654000000    -0.00003138834859     0.00002456643779    -0.00000005669178
  6     0.66410162300000    11.52404526900000     4.99998861300000    -0.00000321253417    -0.00000317473965    -0.00000019842123
  6     7.30186888700000    12.85805475900000     5.00000827400000    -0.00001082812989     0.00001230211615    -0.00000034015068
 78     1.01161513500000    13.40344088400000     5.00003421900000    -0.00001256667779    -0.00001934134544    -0.00000036849657
