CRYSTAL
PRIMVEC
     9.8639806455    0.0000000000    0.0000000000
     0.0000000000   29.9999950877    0.0000000000
     0.0000000000    0.0000000000   15.5000027228
PRIMCOORD
 54 1
         0.0000000000     0.0000000000     0.0000000000     -0.0007259400    -0.0462010400    -0.0005165900
         0.0000000000     0.0000000000     0.0000000000     -0.0001406300    -0.0004679600    -0.0000332800
         0.0000000000     0.0000000000     0.0000000000     -0.0010763900     0.0326608500     0.0002094400
         0.0000000000     0.0000000000     0.0000000000     -0.0000378500     0.0003031400     0.0000464600
         0.0000000000     0.0000000000     0.0000000000     -0.0000120900    -0.0450703400     0.0005086900
         0.0000000000     0.0000000000     0.0000000000     -0.0000036500    -0.0005399800    -0.0000203900
         0.0000000000     0.0000000000     0.0000000000      0.0009063900     0.0326405900     0.0002124600
         0.0000000000     0.0000000000     0.0000000000      0.0000356600     0.0003316300     0.0000591800
         0.0000000000     0.0000000000     0.0000000000      0.0006858700    -0.0462362600    -0.0005438600
         0.0000000000     0.0000000000     0.0000000000      0.0001308100    -0.0004590500     0.0000052100
         0.0000000000     0.0000000000     0.0000000000     -0.0012690100     0.0326242900     0.0004252500
         0.0000000000     0.0000000000     0.0000000000     -0.0000555800     0.0001287400    -0.0000234200
         0.0000000000     0.0000000000     0.0000000000     -0.0000277200    -0.0435778100    -0.0016184300
         0.0000000000     0.0000000000     0.0000000000      0.0000119200    -0.0006348700     0.0000342600
         0.0000000000     0.0000000000     0.0000000000      0.0011580000     0.0326684900     0.0004234300
         0.0000000000     0.0000000000     0.0000000000      0.0000622500     0.0001235100     0.0000263500
         0.0000000000     0.0000000000     0.0000000000     -0.0000204100     0.0000708700    -0.0000434700
         0.0000000000     0.0000000000     0.0000000000     -0.0001837500     0.0001385100    -0.0002604800
         0.0000000000     0.0000000000     0.0000000000      0.0000427800    -0.0002746100     0.0000265900
         0.0000000000     0.0000000000     0.0000000000     -0.0004351500    -0.0000108600    -0.0008258200
         0.0000000000     0.0000000000     0.0000000000      0.0000146500     0.0001313300    -0.0000998600
         0.0000000000     0.0000000000     0.0000000000      0.0000174300    -0.0005681800    -0.0009095600
         0.0000000000     0.0000000000     0.0000000000     -0.0000052600    -0.0002596200    -0.0000161300
         0.0000000000     0.0000000000     0.0000000000      0.0004061800    -0.0000906700    -0.0008928900
         0.0000000000     0.0000000000     0.0000000000      0.0000582700     0.0000325200    -0.0000232000
         0.0000000000     0.0000000000     0.0000000000      0.0001539500     0.0001354900    -0.0002499700
         0.0000000000     0.0000000000     0.0000000000     -0.0000931900    -0.0002307900     0.0000022300
         0.0000000000     0.0000000000     0.0000000000     -0.0001161400     0.0001085700    -0.0001589300
         0.0000000000     0.0000000000     0.0000000000      0.0000157200     0.0003497600    -0.0000391600
         0.0000000000     0.0000000000     0.0000000000      0.0000003300    -0.0003454900     0.0001848900
         0.0000000000     0.0000000000     0.0000000000      0.0001184300    -0.0002273200     0.0000324000
         0.0000000000     0.0000000000     0.0000000000      0.0001262600     0.0000986200    -0.0001850600
         0.0000000000     0.0000000000     0.0000000000      0.0000291200     0.0100110300     0.0000327700
         0.0000000000     0.0000000000     0.0000000000      0.0001109000     0.0100120100     0.0000355400
         0.0000000000     0.0000000000     0.0000000000      0.0000780200     0.0099769900     0.0002656600
         0.0000000000     0.0000000000     0.0000000000      0.0000675500     0.0099751500     0.0002626800
         0.0000000000     0.0000000000     0.0000000000      0.0006597700    -0.0063168900    -0.0008710400
         0.0000000000     0.0000000000     0.0000000000     -0.0009455200     0.0015730000     0.0012023500
         0.0000000000     0.0000000000     0.0000000000     -0.0020709400     0.0004839800    -0.0013418200
         0.0000000000     0.0000000000     0.0000000000      0.0012864900     0.0006046300     0.0011670300
         0.0000000000     0.0000000000     0.0000000000     -0.0030901300    -0.0047450100     0.0130878600
         0.0000000000     0.0000000000     0.0000000000     -0.0003186300    -0.0066913700     0.0007988700
         0.0000000000     0.0000000000     0.0000000000      0.0020367500     0.0002725800    -0.0015203600
         0.0000000000     0.0000000000     0.0000000000      0.0000010200     0.0077749900    -0.0023499000
         0.0000000000     0.0000000000     0.0000000000      0.0000350300    -0.0012801000     0.0053212800
         0.0000000000     0.0000000000     0.0000000000     -0.0005352000     0.0056364100    -0.0010059300
         0.0000000000     0.0000000000     0.0000000000      0.0007117100     0.0054818900    -0.0011279600
         0.0000000000     0.0000000000     0.0000000000      0.0011363900     0.0012661400    -0.0008285600
         0.0000000000     0.0000000000     0.0000000000     -0.0004044500     0.0052521900    -0.0044387700
         0.0000000000     0.0000000000     0.0000000000     -0.0004278600    -0.0057055200    -0.0003708100
         0.0000000000     0.0000000000     0.0000000000     -0.0011401600     0.0012491000    -0.0007705600
         0.0000000000     0.0000000000     0.0000000000      0.0000459100    -0.0043087300    -0.0035362700
         0.0000000000     0.0000000000     0.0000000000      0.0043188800     0.0169749000     0.0063365800
         0.0000000000     0.0000000000     0.0000000000     -0.0013267900    -0.0048494100    -0.0060849900
