CRYSTAL
PRIMVEC
 8.54286592742127 0.00000000000000 0.00000000000000
 0.00000000000000 29.99999936305714 0.00000000000000
 0.00000000000000 0.00000000000000 15.49999653852868
PRIMCOORD
 41 1
  6     1.42374298100000     2.99499287600000     5.00000000000000     0.00000000000000     0.00000000000000     0.00000000000000
  6     2.84748596200000     2.99499287600000     5.00000000000000     0.00000000000000     0.00000000000000     0.00000000000000
  6     0.71187149100000     4.22799046600000     5.00000000000000     0.00000000000000     0.00000000000000     0.00000000000000
  6     3.55935745300000     4.22799046600000     5.00000000000000     0.00000000000000     0.00000000000000     0.00000000000000
  6     1.42393511700000     5.45352854200000     5.00001463900000    -0.00001177299288    -0.00002724040006    -0.00000053857191
  6     2.84771921100000     5.46136218000000     5.00001581400000    -0.00001938858859     0.00000945807855    -0.00000040629109
  6     0.70976265200000     6.69209955900000     5.00000643300000    -0.00002524673914     0.00001337925997    -0.00000051022602
  6     3.55774904000000     6.70374123000000     5.00001897800000    -0.00002149563307     0.00001351154078    -0.00000078423628
  6     1.42319281300000     7.92406062900000     5.00000191800000    -0.00006391998140    -0.00003479930399    -0.00000033070205
  6     2.84752648600000     7.95112127100000     5.00002220000000    -0.00002432077341     0.00004410620446    -0.00000064250683
  6     0.70887058300000     9.14938682100000     4.99995236900000     0.00001975708516     0.00001787680781    -0.00000001889726
  6     3.53314080500000     9.19736631000000     5.00002550000000     0.00002233656113    -0.00002039959200    -0.00000023621575
  6     1.38163801500000    10.40677246100000     4.99996700200000    -0.00002503886929    -0.00000463927729     0.00000020786986
  6     2.80090553900000    10.45323976800000     5.00003005300000    -0.00001703587974     0.00004487154349     0.00000027401027
  6     5.69497192400000     2.99499287600000     5.00000000000000     0.00000000000000     0.00000000000000     0.00000000000000
  6     7.11871490500000     2.99499287600000     5.00000000000000     0.00000000000000     0.00000000000000     0.00000000000000
  6     4.98310043400000     4.22799046600000     5.00000000000000     0.00000000000000     0.00000000000000     0.00000000000000
  6     7.83058639500000     4.22799046600000     5.00000000000000     0.00000000000000     0.00000000000000     0.00000000000000
  6     5.69291229300000     5.45283546400000     5.00000639000000    -0.00003946692717    -0.00000019842123    -0.00000031180479
  6     7.11600971500000     5.44841143900000     5.00000282600000     0.00003335366361    -0.00000221097940    -0.00000026456164
  6     4.97614269000000     6.69393947100000     5.00000552400000     0.00000757780120     0.00000699198614    -0.00000064250683
  6     7.83080673800000     6.67997648400000     4.99999362400000    -0.00000028345890    -0.00002135390362    -0.00000038739383
  6     5.68366468800000     7.92008173900000     4.99997149900000    -0.00000599988000    -0.00005134385498    -0.00000046298287
  6     7.11198128300000     7.90277024300000     4.99995820200000     0.00007304735790     0.00001732878727    -0.00000036849657
  6     4.96210513100000     9.16752149600000     4.99996741300000     0.00001478710582     0.00002239325291    -0.00000010393493
  6     7.84212168300000     9.11036513800000     4.99990652600000     0.00000867384227    -0.00002008778721     0.00000006614041
  6     5.73461471300000    10.32236318000000     4.99988631700000     0.00002717425965    -0.00004007163949     0.00000023621575
  6     7.12595365500000    10.32587403700000     4.99981588700000     0.00006309795060     0.00007348199488     0.00000007558904
  1     0.90511317300000     2.02921292800000     5.00000000000000     0.00000000000000     0.00000000000000     0.00000000000000
  1     3.36611577100000     2.02921292800000     5.00000000000000     0.00000000000000     0.00000000000000     0.00000000000000
  1     5.17634211700000     2.02921292800000     5.00000000000000     0.00000000000000     0.00000000000000     0.00000000000000
  1     7.63734470500000     2.02921292800000     5.00000000000000     0.00000000000000     0.00000000000000     0.00000000000000
  6     1.25338725100000    12.89650355600000     4.99993999000000    -0.00004581640648     0.00002305465700    -0.00000015117808
 78     5.22039359500000    12.15124385400000     5.00007517300000    -0.00000442195880    -0.00002981042739     0.00000103934929
  6     2.62280462100000    12.94327314400000     5.00003127900000     0.00000934469499     0.00004115823193     0.00000081258217
  1     3.13857861800000    13.91520805800000     5.00005680800000     0.00003956141347    -0.00000216373625     0.00000124721915
  1     7.24966966000000    12.54121523800000     4.99953596100000    -0.00005226037208     0.00001164071206    -0.00000166295887
  6     0.62581884800000    11.63347763200000     4.99989864400000     0.00005376270424     0.00004343535174    -0.00000005669178
  6     7.78402042800000    11.55481280900000     4.99976355600000    -0.00001393672913     0.00004153617712    -0.00000044408561
  6     3.37159406100000    11.75535638500000     5.00006622800000    -0.00002177909196     0.00002362157480     0.00000083147943
  1     0.64176914500000    13.80636586600000     4.99991281000000    -0.00002953641713    -0.00000874943131    -0.00000091651710
