CRYSTAL
PRIMVEC
 9.86398064105027 0.00000000000000 0.00000000000000
 0.00000000000000 29.99999507430976 0.00000000000000
 0.00000000000000 0.00000000000000 15.50000271584972
PRIMCOORD
 45 1
  6     0.71187149000000     2.92123941900000     5.00000000000000     0.00000000000000     0.00000000000000     0.00000000000000
  6     0.70708412000000     4.35784657400000     5.00001462400000    -0.00001467372226    -0.00000332591773    -0.00000000944863
  6     1.94486908000000     2.20936792800000     5.00000000000000     0.00000000000000     0.00000000000000     0.00000000000000
  6     1.94576089900000     5.05759172200000     5.00002715100000     0.00003232376295    -0.00002287513303    -0.00000006614041
  6     3.17786667000000     2.92123941900000     5.00000000000000     0.00000000000000     0.00000000000000     0.00000000000000
  6     3.17914555800000     4.35696906200000     5.00001981500000    -0.00000595263685    -0.00000296686979     0.00000005669178
  6     4.41086426000000     2.20936792800000     5.00000000000000     0.00000000000000     0.00000000000000     0.00000000000000
  6     4.41366873500000     5.06358432100000     5.00002239200000    -0.00002430187615    -0.00002609711584     0.00000002834589
  6     5.64386185000000     2.92123941900000     5.00000000000000     0.00000000000000     0.00000000000000     0.00000000000000
  6     5.64880109100000     4.36269802300000     5.00001130200000     0.00000239995200     0.00003878662582    -0.00000003779452
  6     6.87685944000000     2.20936792800000     5.00000000000000     0.00000000000000     0.00000000000000     0.00000000000000
  6     6.87834678600000     5.07570576300000     5.00001350500000    -0.00004644946468     0.00002992381095    -0.00000012283219
  6     8.10985703000000     2.92123941900000     5.00000000000000     0.00000000000000     0.00000000000000     0.00000000000000
  6     8.10842996100000     4.36050764200000     5.00001037200000    -0.00002705142746     0.00003919291690    -0.00000012283219
  6     9.34285462000000     2.20936792800000     5.00000000000000     0.00000000000000     0.00000000000000     0.00000000000000
  6     9.33742386900000     5.06577266800000     5.00001703500000    -0.00001442805789    -0.00001813192081    -0.00000009448630
  6     0.70648842400000     7.18866764500000     5.00001660100000     0.00003646226286    -0.00001184858192    -0.00000006614041
  6     0.71123250100000     8.60698224300000     5.00000614000000     0.00001891615710    -0.00002120272554    -0.00000006614041
  6     1.94742609100000     6.48256683200000     5.00002688800000     0.00003056631779    -0.00000462038003    -0.00000002834589
  6     1.95170132800000     9.31696542900000     4.99999917500000    -0.00000888171212     0.00001753665713     0.00000012283219
  6     3.17653031600000     7.18557970200000     5.00002036900000    -0.00002320583508     0.00000381724649     0.00000014172945
  6     3.17206400700000     8.61505316100000     5.00000173700000     0.00003871103678    -0.00000069919861     0.00000021731849
  6     4.41371766500000     6.49161911700000     5.00002267200000    -0.00000370386293     0.00001952086941    -0.00000001889726
  6     4.38624975000000     9.34271316900000     4.99998483100000     0.00002522784188    -0.00000023621575     0.00000033070205
  6     5.64435146200000     7.21131749700000     5.00001205600000    -0.00003701973202    -0.00000107714381     0.00000009448630
  6     5.63930934600000     8.64949077500000     4.99999182600000    -0.00000353378759    -0.00005158007073     0.00000012283219
  6     6.87883175300000     6.51563641500000     5.00000890000000     0.00000580145877     0.00001444695515     0.00000008503767
  6     6.85216824000000     9.37254756600000     4.99998203900000     0.00001453199282     0.00001470206815     0.00000021731849
  6     8.11511428800000     7.23851923400000     5.00000267700000     0.00001281234217     0.00004756440301    -0.00000003779452
  6     8.12453665400000     8.69045529600000     4.99999121500000     0.00001584535237    -0.00003722760188    -0.00000004724315
  6     9.33464592000000     6.50084599700000     5.00001380100000     0.00001906733518    -0.00002540736585     0.00000007558904
  6     9.37874102100000     9.35274757200000     5.00000310100000     0.00001819806122    -0.00000530068138    -0.00000002834589
  1     1.94450233900000     1.10952337400000     5.00000000000000     0.00000000000000     0.00000000000000     0.00000000000000
  1     4.41049752000000     1.10952337400000     5.00000000000000     0.00000000000000     0.00000000000000     0.00000000000000
  1     6.87649270100000     1.10952337400000     5.00000000000000     0.00000000000000     0.00000000000000     0.00000000000000
  1     9.34248788200000     1.10952337400000     5.00000000000000     0.00000000000000     0.00000000000000     0.00000000000000
  6     1.86628263900000    10.74194756100000     4.99999204500000    -0.00001154622576     0.00000223932529    -0.00000020786986
  6     7.92238960100000    11.56760312600000     5.00001772000000    -0.00003332531772     0.00004582585511    -0.00000027401027
 78     9.74587654200000    11.33248331900000     5.00003438100000    -0.00001898229751     0.00000833369159     0.00000010393493
  6     4.31704020100000    10.77403227300000     4.99996198800000    -0.00001397452365    -0.00002541681448    -0.00000006614041
  1     3.06714918700000    12.54124724300000     4.99995918100000    -0.00003561188616     0.00000530068138    -0.00000001889726
  6     6.75705626500000    10.82475620300000     4.99997334700000    -0.00001716816056     0.00000595263685     0.00000037794520
  1     5.50915320900000    12.58014560300000     4.99995317500000     0.00003825750254    -0.00001525953732    -0.00000033070205
  6     3.05307867900000    11.44232551400000     4.99996827100000    -0.00001458868460     0.00000171020202    -0.00000031180479
  6     5.51728717300000    11.48349673600000     4.99995597700000     0.00000607546904    -0.00001396507502     0.00000005669178
