CRYSTAL
PRIMVEC
 9.86398064105027 0.00000000000000 0.00000000000000
 0.00000000000000 29.99999507430976 0.00000000000000
 0.00000000000000 0.00000000000000 15.50000271584972
PRIMCOORD
 48 1
  6     0.71187149000000     2.92123941900000     5.00000000000000     0.00000000000000     0.00000000000000     0.00000000000000
  6     0.71172431700000     4.36097622100000     4.99686554100000    -0.00000947697581    -0.00002259167414     0.00000728489367
  6     1.94486908000000     2.20936792800000     5.00000000000000     0.00000000000000     0.00000000000000     0.00000000000000
  6     1.94395250500000     5.06902009600000     4.98880576900000    -0.00000450699647    -0.00001861380094    -0.00002030510570
  6     3.17786667000000     2.92123941900000     5.00000000000000     0.00000000000000     0.00000000000000     0.00000000000000
  6     3.17626795000000     4.35949966400000     4.98796082900000    -0.00001395562639    -0.00000163461298     0.00004527783457
  6     4.41086426000000     2.20936792800000     5.00000000000000     0.00000000000000     0.00000000000000     0.00000000000000
  6     4.40983482100000     5.06237771500000     4.96798679600000    -0.00001308635244    -0.00000328812321    -0.00001185803055
  6     5.64386185000000     2.92123941900000     5.00000000000000     0.00000000000000     0.00000000000000     0.00000000000000
  6     5.64370719500000     4.35784740800000     4.97985174300000     0.00000304245883     0.00000667073272    -0.00003175684516
  6     6.87685944000000     2.20936792800000     5.00000000000000     0.00000000000000     0.00000000000000     0.00000000000000
  6     6.87751825200000     5.06236270000000     4.96760377000000     0.00000447865058     0.00000197476365     0.00001747996535
  6     8.10985703000000     2.92123941900000     5.00000000000000     0.00000000000000     0.00000000000000     0.00000000000000
  6     8.11114541700000     4.35948957000000     4.98755380500000     0.00001766893795    -0.00000651010601     0.00007098755658
  6     9.34285462000000     2.20936792800000     5.00000000000000     0.00000000000000     0.00000000000000     0.00000000000000
  6     9.34339615700000     5.06899075200000     4.98837383100000     0.00002353653713    -0.00000029290753     0.00001353988667
  6     0.71154762000000     7.22080950800000     4.98888552700000     0.00000978878060    -0.00000755890394     0.00002278064673
  6     0.71145550400000     8.65344647000000     5.02330169300000     0.00001058246551    -0.00000036849657     0.00001959645845
  6     1.94355081200000     6.50214248600000     4.97711346900000    -0.00001151787987    -0.00001872718450    -0.00000308025335
  6     1.95635289100000     9.35843431400000     5.00070886900000    -0.00000401566772     0.00000403456498     0.00001619495168
  6     3.17662150800000     7.20332320500000     4.93507936100000    -0.00001403121543     0.00000368496567     0.00004662898865
  6     3.17874286300000     8.63403797000000     4.89881968900000     0.00000034015068    -0.00002542626311     0.00000649120875
  6     4.40912648800000     6.49146645500000     4.92811535700000    -0.00001844372560     0.00000344874992    -0.00000875887993
  6     4.41475939900000     9.32591173500000     4.78729883100000     0.00000450699647    -0.00000272120542     0.00001822640711
  6     5.64353564700000     7.19357526700000     4.89074673800000     0.00000573531836     0.00001373830790     0.00002566247886
  6     5.64342754300000     8.61857898400000     4.80699990500000     0.00001167850658     0.00000672742450     0.00002374440699
  6     6.87801770700000     6.49144862600000     4.92770172900000     0.00001419184214    -0.00000003779452     0.00000457313688
  6     6.87205655000000     9.32585660400000     4.78688586600000     0.00001550520170    -0.00001006279086    -0.00000885336623
  6     8.11046745000000     7.20328154000000     4.93452098100000     0.00001648785921    -0.00001058246551     0.00004281174216
  6     8.10814314100000     8.63396364500000     4.89822556300000     0.00001016672579     0.00001028955798    -0.00001886891395
  6     9.34360645300000     6.50211034600000     4.97661986800000     0.00001089427030    -0.00000179523968     0.00002885611577
  6     9.33048690100000     9.35836328300000     5.00003328100000     0.00001828309889    -0.00001013837990     0.00004348259489
  1     1.94450233900000     1.10952337400000     5.00000000000000     0.00000000000000     0.00000000000000     0.00000000000000
  1     4.41049752000000     1.10952337400000     5.00000000000000     0.00000000000000     0.00000000000000     0.00000000000000
  1     6.87649270100000     1.10952337400000     5.00000000000000     0.00000000000000     0.00000000000000     0.00000000000000
  1     9.34248788200000     1.10952337400000     5.00000000000000     0.00000000000000     0.00000000000000     0.00000000000000
 78     0.71070087200000    11.92454206000000     5.91517941700000     0.00001781066740    -0.00000980767786     0.00000955256485
  6     5.64331763300000    11.43714089600000     4.57406184200000     0.00001053522236    -0.00000351489033     0.00001079033537
  6     8.08062568700000    11.45881097800000     4.78308526300000     0.00000047243150    -0.00000043463698    -0.00000674632176
  1     0.70855066700000    12.78655272600000     7.33364542600000     0.00002758999936     0.00000063305820     0.00004715811193
  6     9.26415649600000    10.79067930100000     5.05342317700000     0.00001140449631    -0.00001628943798     0.00002872383495
  6     2.02248786800000    10.79078197900000     5.05463643700000     0.00001405011269    -0.00001125331823     0.00000040629109
  1     8.05627939200000    12.55671967800000     4.76204413200000    -0.00000081258217    -0.00001285013669     0.00004731873863
  1     3.23068739900000    12.55688374500000     4.76481260400000    -0.00000505501701    -0.00002486879395     0.00001299186614
  6     4.42561835200000    10.75570225600000     4.67563918800000     0.00001160291754    -0.00001307690381     0.00005181628648
  6     3.20613251900000    11.45895038800000     4.78492574200000     0.00000769118475    -0.00002703253020     0.00000402511635
  1     5.64329370600000    12.53190635000000     4.49773857400000     0.00001228321889    -0.00000580145877     0.00001454144145
  6     6.86106442500000    10.75560398300000     4.67480181100000     0.00001134780453     0.00001319973600     0.00003288123212
