CRYSTAL
PRIMVEC
     9.8639806455    0.0000000000    0.0000000000
     0.0000000000   29.9999950877    0.0000000000
     0.0000000000    0.0000000000   15.5000027228
PRIMCOORD
 51 1
         0.0000000000     0.0000000000     0.0000000000     -0.0054713600    -0.0433416900     0.0002262800
         0.0000000000     0.0000000000     0.0000000000     -0.0000744000    -0.0003735600     0.0000098600
         0.0000000000     0.0000000000     0.0000000000     -0.0014518900     0.0341783300    -0.0001465300
         0.0000000000     0.0000000000     0.0000000000     -0.0000529800     0.0001617700     0.0000106300
         0.0000000000     0.0000000000     0.0000000000     -0.0002954900    -0.0511305300     0.0001416500
         0.0000000000     0.0000000000     0.0000000000     -0.0000012200    -0.0004259400     0.0000085100
         0.0000000000     0.0000000000     0.0000000000     -0.0032382700     0.0346281300    -0.0001460400
         0.0000000000     0.0000000000     0.0000000000     -0.0002106900     0.0002278900    -0.0000005300
         0.0000000000     0.0000000000     0.0000000000      0.0048130500    -0.0476662400     0.0002218700
         0.0000000000     0.0000000000     0.0000000000      0.0000830700    -0.0006427700    -0.0000152900
         0.0000000000     0.0000000000     0.0000000000      0.0015184500     0.0342551900    -0.0001698600
         0.0000000000     0.0000000000     0.0000000000      0.0000051500     0.0002801200    -0.0000100800
         0.0000000000     0.0000000000     0.0000000000      0.0008127600    -0.0444581100     0.0003271500
         0.0000000000     0.0000000000     0.0000000000     -0.0000169100    -0.0005676400    -0.0000073200
         0.0000000000     0.0000000000     0.0000000000      0.0029161700     0.0335837600    -0.0001609600
         0.0000000000     0.0000000000     0.0000000000      0.0002153600     0.0002005600     0.0000229800
         0.0000000000     0.0000000000     0.0000000000     -0.0000338200     0.0001865400     0.0000324700
         0.0000000000     0.0000000000     0.0000000000      0.0001512200     0.0001035300    -0.0000013400
         0.0000000000     0.0000000000     0.0000000000      0.0000220500    -0.0003783100     0.0000117000
         0.0000000000     0.0000000000     0.0000000000     -0.0000260700    -0.0000017300    -0.0000216100
         0.0000000000     0.0000000000     0.0000000000      0.0000480100     0.0001747500    -0.0000451800
         0.0000000000     0.0000000000     0.0000000000      0.0001139500    -0.0001189200    -0.0000159300
         0.0000000000     0.0000000000     0.0000000000      0.0000468900    -0.0001836800    -0.0000395500
         0.0000000000     0.0000000000     0.0000000000     -0.0006993100    -0.0000364600     0.0000191800
         0.0000000000     0.0000000000     0.0000000000     -0.0000282800     0.0001742900    -0.0000559500
         0.0000000000     0.0000000000     0.0000000000     -0.0000709800    -0.0004808900    -0.0000197600
         0.0000000000     0.0000000000     0.0000000000      0.0000311400    -0.0000119000     0.0000168100
         0.0000000000     0.0000000000     0.0000000000      0.0009608000    -0.0032633500     0.0003329800
         0.0000000000     0.0000000000     0.0000000000      0.0000025700     0.0001896500    -0.0000102500
         0.0000000000     0.0000000000     0.0000000000      0.0000230100    -0.0005559300     0.0000018200
         0.0000000000     0.0000000000     0.0000000000     -0.0000997800    -0.0003546100     0.0000225900
         0.0000000000     0.0000000000     0.0000000000     -0.0001163400     0.0003611000     0.0000507000
         0.0000000000     0.0000000000     0.0000000000     -0.0003199000     0.0099027300    -0.0000596800
         0.0000000000     0.0000000000     0.0000000000      0.0000361800     0.0099631000    -0.0000591000
         0.0000000000     0.0000000000     0.0000000000      0.0004157300     0.0098770400    -0.0000777500
         0.0000000000     0.0000000000     0.0000000000      0.0001504500     0.0097312100    -0.0000752400
         0.0000000000     0.0000000000     0.0000000000     -0.0012697200    -0.0011120400     0.0002092200
         0.0000000000     0.0000000000     0.0000000000     -0.0024849700     0.0041315500     0.0002093700
         0.0000000000     0.0000000000     0.0000000000      0.0016846800     0.0024978400    -0.0006632400
         0.0000000000     0.0000000000     0.0000000000     -0.0026730600     0.0038483400    -0.0026458000
         0.0000000000     0.0000000000     0.0000000000     -0.0045891000     0.0062536900     0.0007336700
         0.0000000000     0.0000000000     0.0000000000      0.0033565900    -0.0013811000     0.0039554000
         0.0000000000     0.0000000000     0.0000000000     -0.0021745300     0.0052619200     0.0001288300
         0.0000000000     0.0000000000     0.0000000000      0.0000119100     0.0013493500     0.0000156100
         0.0000000000     0.0000000000     0.0000000000      0.0018361000    -0.0011737400    -0.0047580900
         0.0000000000     0.0000000000     0.0000000000      0.0073230100    -0.0026325300    -0.0001020000
         0.0000000000     0.0000000000     0.0000000000      0.0037719800     0.0060310600    -0.0012179500
         0.0000000000     0.0000000000     0.0000000000     -0.0013553800     0.0026361700     0.0043174000
         0.0000000000     0.0000000000     0.0000000000      0.0000655000    -0.0039886700    -0.0005801200
         0.0000000000     0.0000000000     0.0000000000     -0.0007989900    -0.0052194000    -0.0000490600
         0.0000000000     0.0000000000     0.0000000000     -0.0028623200    -0.0006898700     0.0001275400
