CRYSTAL
PRIMVEC
     9.8639806455    0.0000000000    0.0000000000
     0.0000000000   29.9999950877    0.0000000000
     0.0000000000    0.0000000000   15.5000027228
PRIMCOORD
 52 1
         0.0000000000     0.0000000000     0.0000000000     -0.0046529200    -0.0432308700     0.0007472600
         0.0000000000     0.0000000000     0.0000000000     -0.0000298600    -0.0004240000    -0.0000421400
         0.0000000000     0.0000000000     0.0000000000     -0.0014442400     0.0342401300    -0.0004095300
         0.0000000000     0.0000000000     0.0000000000      0.0000441100     0.0002987300    -0.0000419100
         0.0000000000     0.0000000000     0.0000000000     -0.0002476900    -0.0508838600     0.0004589100
         0.0000000000     0.0000000000     0.0000000000      0.0000138600    -0.0004378500    -0.0000272700
         0.0000000000     0.0000000000     0.0000000000     -0.0032545200     0.0347769800    -0.0003659200
         0.0000000000     0.0000000000     0.0000000000      0.0000303200     0.0001658100    -0.0000236100
         0.0000000000     0.0000000000     0.0000000000      0.0044115000    -0.0478530000     0.0005601800
         0.0000000000     0.0000000000     0.0000000000      0.0000175400    -0.0005488500    -0.0000117300
         0.0000000000     0.0000000000     0.0000000000      0.0015019900     0.0340452400    -0.0004507400
         0.0000000000     0.0000000000     0.0000000000     -0.0000596800     0.0001846400    -0.0000081800
         0.0000000000     0.0000000000     0.0000000000      0.0003357800    -0.0448210800     0.0009235700
         0.0000000000     0.0000000000     0.0000000000      0.0000173900    -0.0004741000    -0.0000106600
         0.0000000000     0.0000000000     0.0000000000      0.0029366800     0.0338521800    -0.0004167700
         0.0000000000     0.0000000000     0.0000000000      0.0000345800     0.0001974300    -0.0000148500
         0.0000000000     0.0000000000     0.0000000000      0.0000238200     0.0001236500     0.0000169200
         0.0000000000     0.0000000000     0.0000000000      0.0001799100     0.0001091300    -0.0000016200
         0.0000000000     0.0000000000     0.0000000000      0.0000616100    -0.0002864100    -0.0000044200
         0.0000000000     0.0000000000     0.0000000000     -0.0000173700     0.0000591800    -0.0000425500
         0.0000000000     0.0000000000     0.0000000000     -0.0000433600     0.0001250900    -0.0000052900
         0.0000000000     0.0000000000     0.0000000000      0.0001369800    -0.0001771500     0.0000020900
         0.0000000000     0.0000000000     0.0000000000      0.0000613300    -0.0001634700    -0.0000189400
         0.0000000000     0.0000000000     0.0000000000     -0.0005256300    -0.0001779900    -0.0000056100
         0.0000000000     0.0000000000     0.0000000000     -0.0000971700     0.0002086000    -0.0000227300
         0.0000000000     0.0000000000     0.0000000000     -0.0003231800    -0.0003600600    -0.0000175800
         0.0000000000     0.0000000000     0.0000000000     -0.0000219700    -0.0001149000    -0.0000082900
         0.0000000000     0.0000000000     0.0000000000      0.0009154900    -0.0032686700     0.0000445700
         0.0000000000     0.0000000000     0.0000000000      0.0001263100     0.0002534600    -0.0000383900
         0.0000000000     0.0000000000     0.0000000000      0.0002389400    -0.0005739600    -0.0000178900
         0.0000000000     0.0000000000     0.0000000000     -0.0000499900    -0.0003057700    -0.0000421700
         0.0000000000     0.0000000000     0.0000000000     -0.0002369300     0.0003181700     0.0000436900
         0.0000000000     0.0000000000     0.0000000000     -0.0002836400     0.0098201500    -0.0001691200
         0.0000000000     0.0000000000     0.0000000000      0.0000069300     0.0098796300    -0.0001545400
         0.0000000000     0.0000000000     0.0000000000      0.0003763100     0.0098163200    -0.0002091700
         0.0000000000     0.0000000000     0.0000000000      0.0001804000     0.0096742900    -0.0002116400
         0.0000000000     0.0000000000     0.0000000000     -0.0015924500    -0.0011094500     0.0006050400
         0.0000000000     0.0000000000     0.0000000000     -0.0022959500     0.0040751600     0.0005771900
         0.0000000000     0.0000000000     0.0000000000      0.0023908500    -0.0033877900    -0.0000417800
         0.0000000000     0.0000000000     0.0000000000      0.0010368400    -0.0017177500    -0.0098873100
         0.0000000000     0.0000000000     0.0000000000     -0.0066171900     0.0056775100     0.0019381700
         0.0000000000     0.0000000000     0.0000000000      0.0047297600    -0.0010590600     0.0030499500
         0.0000000000     0.0000000000     0.0000000000     -0.0020788100     0.0048753000     0.0004498000
         0.0000000000     0.0000000000     0.0000000000     -0.0001464400     0.0012131700     0.0000384700
         0.0000000000     0.0000000000     0.0000000000      0.0000704100    -0.0015877200    -0.0053798700
         0.0000000000     0.0000000000     0.0000000000      0.0072774900    -0.0026601800    -0.0002402200
         0.0000000000     0.0000000000     0.0000000000      0.0015787700     0.0053963100    -0.0040892400
         0.0000000000     0.0000000000     0.0000000000     -0.0011901400     0.0033653000     0.0040853800
         0.0000000000     0.0000000000     0.0000000000      0.0004610500    -0.0037890400    -0.0005262600
         0.0000000000     0.0000000000     0.0000000000     -0.0006661700    -0.0051641000    -0.0001960000
         0.0000000000     0.0000000000     0.0000000000     -0.0030210200    -0.0010493200     0.0003766100
         0.0000000000     0.0000000000     0.0000000000     -0.0003006300     0.0128748500     0.0092361300
