CRYSTAL
PRIMVEC
     8.5428654021    0.0000000000    0.0000000000
     0.0000000000   29.9999975181    0.0000000000
     0.0000000000    0.0000000000   15.4999955853
PRIMCOORD
 43 1
         0.0000000000     0.0000000000     0.0000000000      0.0800902700     0.0139020000     0.0002278600
         0.0000000000     0.0000000000     0.0000000000     -0.0803500800     0.0129751500    -0.0001363200
         0.0000000000     0.0000000000     0.0000000000      0.0238085500    -0.0276072800    -0.0000624600
         0.0000000000     0.0000000000     0.0000000000     -0.0244466600    -0.0272052100     0.0001356900
         0.0000000000     0.0000000000     0.0000000000      0.0001826000    -0.0000747200    -0.0000518200
         0.0000000000     0.0000000000     0.0000000000     -0.0001650600    -0.0001290200     0.0000148400
         0.0000000000     0.0000000000     0.0000000000      0.0000106100     0.0000284400     0.0000025800
         0.0000000000     0.0000000000     0.0000000000     -0.0000128100     0.0000734500     0.0000249700
         0.0000000000     0.0000000000     0.0000000000     -0.0000903700     0.0000259200     0.0001444700
         0.0000000000     0.0000000000     0.0000000000      0.0002107700    -0.0001300300    -0.0000417800
         0.0000000000     0.0000000000     0.0000000000     -0.0002945800    -0.0001476800     0.0001381600
         0.0000000000     0.0000000000     0.0000000000     -0.0002492100     0.0001057400     0.0000935600
         0.0000000000     0.0000000000     0.0000000000      0.0002848800     0.0000738300     0.0003735300
         0.0000000000     0.0000000000     0.0000000000      0.0006599100    -0.0008839500     0.0002555800
         0.0000000000     0.0000000000     0.0000000000      0.0786423900     0.0154304100    -0.0000597600
         0.0000000000     0.0000000000     0.0000000000     -0.0783125300     0.0137063400     0.0002369900
         0.0000000000     0.0000000000     0.0000000000      0.0248422300    -0.0280666000     0.0003294800
         0.0000000000     0.0000000000     0.0000000000     -0.0243428600    -0.0281873600    -0.0007872500
         0.0000000000     0.0000000000     0.0000000000      0.0001628900    -0.0001099200     0.0000101600
         0.0000000000     0.0000000000     0.0000000000     -0.0001428900    -0.0001942600     0.0000251200
         0.0000000000     0.0000000000     0.0000000000      0.0000808600     0.0001111100     0.0000604000
         0.0000000000     0.0000000000     0.0000000000     -0.0000518400     0.0001407700    -0.0000064500
         0.0000000000     0.0000000000     0.0000000000     -0.0002188700     0.0000149600    -0.0000151000
         0.0000000000     0.0000000000     0.0000000000      0.0001823700    -0.0001464700    -0.0000220000
         0.0000000000     0.0000000000     0.0000000000     -0.0000134600    -0.0000659500     0.0001174700
         0.0000000000     0.0000000000     0.0000000000      0.0002185000    -0.0000658700    -0.0000918000
         0.0000000000     0.0000000000     0.0000000000      0.0001841600     0.0007030100    -0.0000429900
         0.0000000000     0.0000000000     0.0000000000      0.0000697600     0.0000840800     0.0002524300
         0.0000000000     0.0000000000     0.0000000000      0.0082194200     0.0111234600     0.0000084300
         0.0000000000     0.0000000000     0.0000000000     -0.0082935200     0.0111867600    -0.0000179700
         0.0000000000     0.0000000000     0.0000000000      0.0082023100     0.0111163800    -0.0000364700
         0.0000000000     0.0000000000     0.0000000000     -0.0082338800     0.0112430700     0.0000847100
         0.0000000000     0.0000000000     0.0000000000     -0.0013086800     0.0052637000     0.0002849800
         0.0000000000     0.0000000000     0.0000000000      0.0015165300     0.0060233200     0.0003469100
         0.0000000000     0.0000000000     0.0000000000      0.0000516600     0.0013779300     0.0004534600
         0.0000000000     0.0000000000     0.0000000000     -0.0007999300     0.0015724100    -0.0009341700
         0.0000000000     0.0000000000     0.0000000000      0.0007776100    -0.0003400700     0.0003562000
         0.0000000000     0.0000000000     0.0000000000      0.0000981100     0.0012487700     0.0025290300
         0.0000000000     0.0000000000     0.0000000000     -0.0002916600     0.0078327300    -0.0039847600
         0.0000000000     0.0000000000     0.0000000000      0.0012667800    -0.0011944700     0.0004573600
         0.0000000000     0.0000000000     0.0000000000     -0.0021414100    -0.0029822600    -0.0009105000
         0.0000000000     0.0000000000     0.0000000000      0.0031947000    -0.0039904000     0.0004347400
         0.0000000000     0.0000000000     0.0000000000     -0.0031975700    -0.0038422400    -0.0001974800
