CRYSTAL
PRIMVEC
     8.5428654021    0.0000000000    0.0000000000
     0.0000000000   29.9999975181    0.0000000000
     0.0000000000    0.0000000000   15.4999955853
PRIMCOORD
 44 1
         0.0000000000     0.0000000000     0.0000000000      0.0822295700     0.0112580900     0.0000699600
         0.0000000000     0.0000000000     0.0000000000     -0.0827061600     0.0113722900    -0.0002129100
         0.0000000000     0.0000000000     0.0000000000      0.0216398700    -0.0260268100     0.0001215600
         0.0000000000     0.0000000000     0.0000000000     -0.0214702100    -0.0246878200     0.0002338800
         0.0000000000     0.0000000000     0.0000000000      0.0001260300    -0.0001215500    -0.0000090300
         0.0000000000     0.0000000000     0.0000000000     -0.0001986100    -0.0001273800     0.0000008500
         0.0000000000     0.0000000000     0.0000000000      0.0000825400     0.0002092200     0.0000310900
         0.0000000000     0.0000000000     0.0000000000     -0.0000849500     0.0001921000     0.0000556400
         0.0000000000     0.0000000000     0.0000000000     -0.0001958100    -0.0000564300     0.0001083800
         0.0000000000     0.0000000000     0.0000000000      0.0002478800    -0.0000855400     0.0000192300
         0.0000000000     0.0000000000     0.0000000000     -0.0002581200    -0.0001908800     0.0000360200
         0.0000000000     0.0000000000     0.0000000000      0.0001323400    -0.0001067300    -0.0000568700
         0.0000000000     0.0000000000     0.0000000000     -0.0003900100     0.0005718500     0.0005845100
         0.0000000000     0.0000000000     0.0000000000      0.0001837700     0.0002928000     0.0000209700
         0.0000000000     0.0000000000     0.0000000000      0.0818099100     0.0120448300    -0.0000943100
         0.0000000000     0.0000000000     0.0000000000     -0.0819943500     0.0115976200     0.0000517300
         0.0000000000     0.0000000000     0.0000000000      0.0216151600    -0.0258106600     0.0003699900
         0.0000000000     0.0000000000     0.0000000000     -0.0213054500    -0.0246121500    -0.0005364300
         0.0000000000     0.0000000000     0.0000000000      0.0001894400    -0.0002021100    -0.0000115200
         0.0000000000     0.0000000000     0.0000000000     -0.0001997500    -0.0001421200     0.0000203000
         0.0000000000     0.0000000000     0.0000000000      0.0001332400     0.0001495300    -0.0000342300
         0.0000000000     0.0000000000     0.0000000000     -0.0001297000     0.0002697500     0.0000081800
         0.0000000000     0.0000000000     0.0000000000     -0.0000879200    -0.0002750400    -0.0000398100
         0.0000000000     0.0000000000     0.0000000000      0.0000807800    -0.0002412900     0.0000601000
         0.0000000000     0.0000000000     0.0000000000     -0.0001510200    -0.0000126300     0.0000779700
         0.0000000000     0.0000000000     0.0000000000      0.0001929100     0.0000704200    -0.0000438700
         0.0000000000     0.0000000000     0.0000000000     -0.0000367200     0.0003640500    -0.0001345900
         0.0000000000     0.0000000000     0.0000000000      0.0001285300     0.0002289900     0.0002223100
         0.0000000000     0.0000000000     0.0000000000      0.0084811300     0.0111760000    -0.0000057600
         0.0000000000     0.0000000000     0.0000000000     -0.0084862600     0.0111510600    -0.0000450400
         0.0000000000     0.0000000000     0.0000000000      0.0084536200     0.0112140200    -0.0000396600
         0.0000000000     0.0000000000     0.0000000000     -0.0084257100     0.0111858100     0.0000446000
         0.0000000000     0.0000000000     0.0000000000     -0.0011673000     0.0053729900     0.0002529900
         0.0000000000     0.0000000000     0.0000000000      0.0009971400     0.0059404400     0.0005633500
         0.0000000000     0.0000000000     0.0000000000      0.0002537300     0.0011157500     0.0009416600
         0.0000000000     0.0000000000     0.0000000000     -0.0007238500     0.0008512400    -0.0004684000
         0.0000000000     0.0000000000     0.0000000000      0.0002335300     0.0008750000     0.0002056400
         0.0000000000     0.0000000000     0.0000000000      0.0000177200     0.0005440600     0.0035078100
         0.0000000000     0.0000000000     0.0000000000      0.0038339600     0.0039428100    -0.0039758100
         0.0000000000     0.0000000000     0.0000000000      0.0029354100    -0.0036912700     0.0014088300
         0.0000000000     0.0000000000     0.0000000000     -0.0024799700    -0.0040736200    -0.0012418900
         0.0000000000     0.0000000000     0.0000000000      0.0034404200    -0.0041078700     0.0003631700
         0.0000000000     0.0000000000     0.0000000000     -0.0043565300    -0.0047765000     0.0005092200
         0.0000000000     0.0000000000     0.0000000000     -0.0025902100     0.0073576600    -0.0029398100
