CRYSTAL
PRIMVEC
     8.5428654021    0.0000000000    0.0000000000
     0.0000000000   29.9999975181    0.0000000000
     0.0000000000    0.0000000000   15.4999955853
PRIMCOORD
 45 1
         0.0000000000     0.0000000000     0.0000000000      0.0832635100     0.0100990100     0.0000253800
         0.0000000000     0.0000000000     0.0000000000     -0.0838696200     0.0105184800    -0.0001589200
         0.0000000000     0.0000000000     0.0000000000      0.0213113900    -0.0251923300     0.0002438300
         0.0000000000     0.0000000000     0.0000000000     -0.0202950800    -0.0234853600     0.0002226400
         0.0000000000     0.0000000000     0.0000000000      0.0001468000    -0.0000308800    -0.0000472100
         0.0000000000     0.0000000000     0.0000000000     -0.0002624700    -0.0000526500    -0.0000242100
         0.0000000000     0.0000000000     0.0000000000      0.0002042700     0.0002366600     0.0000558100
         0.0000000000     0.0000000000     0.0000000000     -0.0003345900     0.0004532500     0.0000547400
         0.0000000000     0.0000000000     0.0000000000      0.0001832100    -0.0004257300     0.0001131400
         0.0000000000     0.0000000000     0.0000000000     -0.0000620500    -0.0004557300    -0.0000289600
         0.0000000000     0.0000000000     0.0000000000     -0.0003013300     0.0002697400     0.0000492400
         0.0000000000     0.0000000000     0.0000000000      0.0001152700     0.0001636600    -0.0000290700
         0.0000000000     0.0000000000     0.0000000000     -0.0005978900     0.0003428400     0.0004047400
         0.0000000000     0.0000000000     0.0000000000      0.0002696600     0.0003906200    -0.0001228700
         0.0000000000     0.0000000000     0.0000000000      0.0834015100     0.0104055200    -0.0000469700
         0.0000000000     0.0000000000     0.0000000000     -0.0837931900     0.0102264500     0.0000337400
         0.0000000000     0.0000000000     0.0000000000      0.0207325500    -0.0246432400     0.0002386600
         0.0000000000     0.0000000000     0.0000000000     -0.0202993200    -0.0232403200    -0.0004635200
         0.0000000000     0.0000000000     0.0000000000      0.0001148700    -0.0001068100    -0.0000162000
         0.0000000000     0.0000000000     0.0000000000     -0.0002698500     0.0001645700    -0.0000130700
         0.0000000000     0.0000000000     0.0000000000      0.0003355700     0.0003499100     0.0000149200
         0.0000000000     0.0000000000     0.0000000000     -0.0001582300     0.0000886200    -0.0000631500
         0.0000000000     0.0000000000     0.0000000000      0.0002560400    -0.0008526400     0.0000485000
         0.0000000000     0.0000000000     0.0000000000     -0.0001879600    -0.0001530800     0.0000145100
         0.0000000000     0.0000000000     0.0000000000     -0.0003876300     0.0006597200     0.0001186100
         0.0000000000     0.0000000000     0.0000000000      0.0002117000     0.0001247300    -0.0000251700
         0.0000000000     0.0000000000     0.0000000000     -0.0001714700     0.0002071700    -0.0001196700
         0.0000000000     0.0000000000     0.0000000000      0.0004563500     0.0006031200     0.0002430700
         0.0000000000     0.0000000000     0.0000000000      0.0084963500     0.0111711500    -0.0000181100
         0.0000000000     0.0000000000     0.0000000000     -0.0084713200     0.0111333500    -0.0000382000
         0.0000000000     0.0000000000     0.0000000000      0.0084828100     0.0112134800    -0.0000265700
         0.0000000000     0.0000000000     0.0000000000     -0.0084406900     0.0111341900     0.0000385600
         0.0000000000     0.0000000000     0.0000000000     -0.0009822200     0.0053427800     0.0003155900
         0.0000000000     0.0000000000     0.0000000000      0.0005654000     0.0056717600     0.0004381800
         0.0000000000     0.0000000000     0.0000000000     -0.0000166500     0.0009732700     0.0007734600
         0.0000000000     0.0000000000     0.0000000000     -0.0001441600     0.0007725800    -0.0002736600
         0.0000000000     0.0000000000     0.0000000000      0.0001485500     0.0011507700    -0.0000927600
         0.0000000000     0.0000000000     0.0000000000      0.0001965100     0.0003428700     0.0033171900
         0.0000000000     0.0000000000     0.0000000000      0.0052810500     0.0034017900    -0.0044147700
         0.0000000000     0.0000000000     0.0000000000      0.0030726800    -0.0046351500     0.0020062500
         0.0000000000     0.0000000000     0.0000000000     -0.0025395500    -0.0043592100    -0.0003520800
         0.0000000000     0.0000000000     0.0000000000      0.0033935500    -0.0040749200     0.0003659800
         0.0000000000     0.0000000000     0.0000000000     -0.0047764300    -0.0050423600     0.0005682700
         0.0000000000     0.0000000000     0.0000000000     -0.0010665100     0.0156299200    -0.0062815500
         0.0000000000     0.0000000000     0.0000000000     -0.0032113900    -0.0064915700     0.0029516800
