CRYSTAL
PRIMVEC
     8.5428654021    0.0000000000    0.0000000000
     0.0000000000   29.9999975181    0.0000000000
     0.0000000000    0.0000000000   15.4999955853
PRIMCOORD
 43 1
         0.0000000000     0.0000000000     0.0000000000      0.0804876000     0.0138642000     0.0000004500
         0.0000000000     0.0000000000     0.0000000000     -0.0798474700     0.0129060300     0.0000015300
         0.0000000000     0.0000000000     0.0000000000      0.0244017700    -0.0248685800    -0.0000032900
         0.0000000000     0.0000000000     0.0000000000     -0.0256421000    -0.0293891400    -0.0000060600
         0.0000000000     0.0000000000     0.0000000000      0.0001311000    -0.0000847000     0.0000000400
         0.0000000000     0.0000000000     0.0000000000     -0.0001610600    -0.0001162400     0.0000027800
         0.0000000000     0.0000000000     0.0000000000     -0.0000319500     0.0000267500     0.0000002200
         0.0000000000     0.0000000000     0.0000000000      0.0001019100     0.0000558300     0.0000024500
         0.0000000000     0.0000000000     0.0000000000     -0.0001057100    -0.0000164700     0.0000003300
         0.0000000000     0.0000000000     0.0000000000      0.0000627100    -0.0000389500     0.0000002700
         0.0000000000     0.0000000000     0.0000000000     -0.0000270600    -0.0000442500     0.0000031600
         0.0000000000     0.0000000000     0.0000000000      0.0000814100    -0.0000511500    -0.0000017600
         0.0000000000     0.0000000000     0.0000000000      0.0002525700     0.0002318400     0.0000010600
         0.0000000000     0.0000000000     0.0000000000      0.0002655700     0.0000494400     0.0000003500
         0.0000000000     0.0000000000     0.0000000000      0.0798477400     0.0129054700     0.0000015200
         0.0000000000     0.0000000000     0.0000000000     -0.0804875000     0.0138645600     0.0000004900
         0.0000000000     0.0000000000     0.0000000000      0.0256411600    -0.0293899600    -0.0000062100
         0.0000000000     0.0000000000     0.0000000000     -0.0244021400    -0.0248678000    -0.0000034200
         0.0000000000     0.0000000000     0.0000000000      0.0001616700    -0.0001072400     0.0000028400
         0.0000000000     0.0000000000     0.0000000000     -0.0001330400    -0.0000931600     0.0000001700
         0.0000000000     0.0000000000     0.0000000000     -0.0001041400     0.0000333100     0.0000025800
         0.0000000000     0.0000000000     0.0000000000      0.0000314200     0.0000456900     0.0000003600
         0.0000000000     0.0000000000     0.0000000000     -0.0000620600    -0.0000089100     0.0000002700
         0.0000000000     0.0000000000     0.0000000000      0.0001059800    -0.0000402100     0.0000003500
         0.0000000000     0.0000000000     0.0000000000     -0.0000789000    -0.0000754800    -0.0000016700
         0.0000000000     0.0000000000     0.0000000000      0.0000280900    -0.0000264000     0.0000032500
         0.0000000000     0.0000000000     0.0000000000     -0.0002659200     0.0000622900     0.0000005900
         0.0000000000     0.0000000000     0.0000000000     -0.0002512900     0.0002224500     0.0000009100
         0.0000000000     0.0000000000     0.0000000000      0.0081433400     0.0111924200     0.0000001700
         0.0000000000     0.0000000000     0.0000000000     -0.0082424800     0.0110717400     0.0000004300
         0.0000000000     0.0000000000     0.0000000000      0.0082425000     0.0110717500     0.0000004400
         0.0000000000     0.0000000000     0.0000000000     -0.0081433100     0.0111923900     0.0000001700
         0.0000000000     0.0000000000     0.0000000000     -0.0006074500    -0.0006301400     0.0000023400
         0.0000000000     0.0000000000     0.0000000000     -0.0000008900     0.0093887700    -0.0000028900
         0.0000000000     0.0000000000     0.0000000000      0.0006094000    -0.0006340300     0.0000021400
         0.0000000000     0.0000000000     0.0000000000      0.0025478000     0.0039816600    -0.0000027500
         0.0000000000     0.0000000000     0.0000000000     -0.0000465500     0.0011812100     0.0000001900
         0.0000000000     0.0000000000     0.0000000000      0.0029249600    -0.0045150500    -0.0000015300
         0.0000000000     0.0000000000     0.0000000000     -0.0029250600    -0.0045157400    -0.0000011500
         0.0000000000     0.0000000000     0.0000000000     -0.0026701100     0.0005007300     0.0000008400
         0.0000000000     0.0000000000     0.0000000000     -0.0025482200     0.0039814300    -0.0000027400
         0.0000000000     0.0000000000     0.0000000000      0.0000464300     0.0011827400     0.0000000400
         0.0000000000     0.0000000000     0.0000000000      0.0026692700     0.0005009100     0.0000007300
