CRYSTAL
PRIMVEC
     9.8639806455    0.0000000000    0.0000000000
     0.0000000000   29.9999950877    0.0000000000
     0.0000000000    0.0000000000   15.5000027228
PRIMCOORD
 50 1
         0.0000000000     0.0000000000     0.0000000000      0.0000248400    -0.0441144600    -0.0002950300
         0.0000000000     0.0000000000     0.0000000000     -0.0002093900    -0.0005209900    -0.0000461700
         0.0000000000     0.0000000000     0.0000000000      0.0028623600     0.0336374100    -0.0000785800
         0.0000000000     0.0000000000     0.0000000000      0.0002593700     0.0000645700     0.0000642400
         0.0000000000     0.0000000000     0.0000000000     -0.0029617400    -0.0457528200    -0.0001946700
         0.0000000000     0.0000000000     0.0000000000     -0.0003282200    -0.0003149600     0.0000768400
         0.0000000000     0.0000000000     0.0000000000     -0.0004529100     0.0332894600     0.0002649000
         0.0000000000     0.0000000000     0.0000000000     -0.0000377900     0.0002509500     0.0000898300
         0.0000000000     0.0000000000     0.0000000000      0.0008030500    -0.0499810000    -0.0003745000
         0.0000000000     0.0000000000     0.0000000000     -0.0000004200    -0.0003528900     0.0001051300
         0.0000000000     0.0000000000     0.0000000000     -0.0030507400     0.0337448100    -0.0000201800
         0.0000000000     0.0000000000     0.0000000000     -0.0003829600     0.0004164700     0.0000582300
         0.0000000000     0.0000000000     0.0000000000      0.0033918100    -0.0464107300    -0.0005922200
         0.0000000000     0.0000000000     0.0000000000      0.0002722200    -0.0005987100    -0.0000674800
         0.0000000000     0.0000000000     0.0000000000      0.0002981600     0.0349642400     0.0002456300
         0.0000000000     0.0000000000     0.0000000000     -0.0001302000     0.0004045000     0.0000144200
         0.0000000000     0.0000000000     0.0000000000     -0.0002219300     0.0001582400     0.0002171100
         0.0000000000     0.0000000000     0.0000000000      0.0005500900    -0.0000189300     0.0004193700
         0.0000000000     0.0000000000     0.0000000000     -0.0003049000    -0.0001493400     0.0000687400
         0.0000000000     0.0000000000     0.0000000000     -0.0003318500     0.0007350700     0.0001248200
         0.0000000000     0.0000000000     0.0000000000      0.0000129400    -0.0001792500     0.0000116000
         0.0000000000     0.0000000000     0.0000000000      0.0000258500    -0.0001315600     0.0000961800
         0.0000000000     0.0000000000     0.0000000000     -0.0002303900    -0.0000022200     0.0000473100
         0.0000000000     0.0000000000     0.0000000000     -0.0000086600    -0.0000477600     0.0002488100
         0.0000000000     0.0000000000     0.0000000000     -0.0001469000     0.0000497300     0.0000507100
         0.0000000000     0.0000000000     0.0000000000      0.0002479700    -0.0002350900     0.0000853500
         0.0000000000     0.0000000000     0.0000000000      0.0000591500    -0.0002334700     0.0002881000
         0.0000000000     0.0000000000     0.0000000000     -0.0010984900    -0.0000131100     0.0002170000
         0.0000000000     0.0000000000     0.0000000000     -0.0003195000     0.0004781800     0.0002140500
         0.0000000000     0.0000000000     0.0000000000     -0.0002255800    -0.0002512000     0.0002821400
         0.0000000000     0.0000000000     0.0000000000      0.0000871000    -0.0002360200     0.0000530800
         0.0000000000     0.0000000000     0.0000000000      0.0000404500     0.0002781000     0.0028534400
         0.0000000000     0.0000000000     0.0000000000      0.0001407600     0.0099451100     0.0000091200
         0.0000000000     0.0000000000     0.0000000000     -0.0000759500     0.0099876300     0.0000520900
         0.0000000000     0.0000000000     0.0000000000      0.0000836800     0.0100408700     0.0000700900
         0.0000000000     0.0000000000     0.0000000000      0.0002506500     0.0099525100     0.0000973800
         0.0000000000     0.0000000000     0.0000000000     -0.0021769100     0.0042021200     0.0006159100
         0.0000000000     0.0000000000     0.0000000000      0.0062800800    -0.0020619400     0.0002117100
         0.0000000000     0.0000000000     0.0000000000      0.0001602700    -0.0034991200    -0.0009306600
         0.0000000000     0.0000000000     0.0000000000     -0.0025107800     0.0047723300     0.0001227700
         0.0000000000     0.0000000000     0.0000000000      0.0025881900    -0.0009088200    -0.0042837500
         0.0000000000     0.0000000000     0.0000000000      0.0011623500     0.0004945500    -0.0015664100
         0.0000000000     0.0000000000     0.0000000000     -0.0007146200    -0.0051970100     0.0000827500
         0.0000000000     0.0000000000     0.0000000000     -0.0000420100     0.0007297000    -0.0002373100
         0.0000000000     0.0000000000     0.0000000000     -0.0052194100    -0.0002154800     0.0006505800
         0.0000000000     0.0000000000     0.0000000000      0.0031572900    -0.0000999200     0.0043160800
         0.0000000000     0.0000000000     0.0000000000     -0.0013427700    -0.0004409700     0.0003780200
         0.0000000000     0.0000000000     0.0000000000     -0.0000649700     0.0074535600    -0.0003420700
         0.0000000000     0.0000000000     0.0000000000     -0.0016465700    -0.0004499200     0.0009624700
         0.0000000000     0.0000000000     0.0000000000      0.0014779200     0.0063675900    -0.0047369800
