CRYSTAL
PRIMVEC
     9.8639806455    0.0000000000    0.0000000000
     0.0000000000   29.9999950877    0.0000000000
     0.0000000000    0.0000000000   15.5000027228
PRIMCOORD
 53 1
         0.0000000000     0.0000000000     0.0000000000     -0.0006182800    -0.0449614600     0.0000258100
         0.0000000000     0.0000000000     0.0000000000     -0.0001292100    -0.0004793600     0.0000104500
         0.0000000000     0.0000000000     0.0000000000      0.0010671100     0.0335071900    -0.0001165400
         0.0000000000     0.0000000000     0.0000000000      0.0000234200     0.0000679500    -0.0000049000
         0.0000000000     0.0000000000     0.0000000000     -0.0011711700    -0.0457348600     0.0004219300
         0.0000000000     0.0000000000     0.0000000000     -0.0001373700    -0.0003781100    -0.0000171500
         0.0000000000     0.0000000000     0.0000000000     -0.0012255900     0.0336219900     0.0000306200
         0.0000000000     0.0000000000     0.0000000000      0.0000081100     0.0003159100     0.0000238700
         0.0000000000     0.0000000000     0.0000000000      0.0003694300    -0.0482115000     0.0001217700
         0.0000000000     0.0000000000     0.0000000000      0.0001297300    -0.0003353500     0.0000124000
         0.0000000000     0.0000000000     0.0000000000     -0.0010596500     0.0337498400     0.0000125700
         0.0000000000     0.0000000000     0.0000000000      0.0000120100     0.0000228200    -0.0000106700
         0.0000000000     0.0000000000     0.0000000000      0.0013043000    -0.0467585700    -0.0005850700
         0.0000000000     0.0000000000     0.0000000000      0.0001181400    -0.0004873900     0.0000057700
         0.0000000000     0.0000000000     0.0000000000      0.0009410500     0.0344802500     0.0001180000
         0.0000000000     0.0000000000     0.0000000000     -0.0000210000    -0.0000966800     0.0000166700
         0.0000000000     0.0000000000     0.0000000000     -0.0001533900     0.0003254800     0.0002253900
         0.0000000000     0.0000000000     0.0000000000     -0.0002153200     0.0000574800     0.0006422000
         0.0000000000     0.0000000000     0.0000000000      0.0002816700    -0.0001401100    -0.0000258200
         0.0000000000     0.0000000000     0.0000000000      0.0001522200     0.0004268800     0.0007700400
         0.0000000000     0.0000000000     0.0000000000     -0.0000967500    -0.0000684200     0.0000380300
         0.0000000000     0.0000000000     0.0000000000     -0.0002406800     0.0000974800     0.0002193100
         0.0000000000     0.0000000000     0.0000000000      0.0000453300    -0.0002338000     0.0000135800
         0.0000000000     0.0000000000     0.0000000000      0.0000718800     0.0005462600     0.0001656600
         0.0000000000     0.0000000000     0.0000000000      0.0000971400    -0.0002758600     0.0000168200
         0.0000000000     0.0000000000     0.0000000000      0.0003447800     0.0002197300     0.0000145900
         0.0000000000     0.0000000000     0.0000000000     -0.0002623000    -0.0000515800     0.0001314800
         0.0000000000     0.0000000000     0.0000000000     -0.0003945000    -0.0003743600     0.0002692200
         0.0000000000     0.0000000000     0.0000000000      0.0001834600     0.0001464900     0.0000850200
         0.0000000000     0.0000000000     0.0000000000      0.0001519900    -0.0000383200     0.0006222500
         0.0000000000     0.0000000000     0.0000000000     -0.0000807300    -0.0002015100     0.0000217300
         0.0000000000     0.0000000000     0.0000000000     -0.0000397900     0.0003353000     0.0030123700
         0.0000000000     0.0000000000     0.0000000000      0.0000278100     0.0099646600    -0.0000662500
         0.0000000000     0.0000000000     0.0000000000     -0.0000636000     0.0099262800    -0.0000600800
         0.0000000000     0.0000000000     0.0000000000      0.0001315900     0.0100434400     0.0000475800
         0.0000000000     0.0000000000     0.0000000000      0.0001871300     0.0100137800     0.0000609400
         0.0000000000     0.0000000000     0.0000000000     -0.0017289300     0.0038691400     0.0028390000
         0.0000000000     0.0000000000     0.0000000000      0.0062342100    -0.0027970100     0.0004782100
         0.0000000000     0.0000000000     0.0000000000      0.0001104700    -0.0054168400     0.0000053000
         0.0000000000     0.0000000000     0.0000000000     -0.0020427600     0.0049816600     0.0014314300
         0.0000000000     0.0000000000     0.0000000000      0.0023282800    -0.0011711400    -0.0042401000
         0.0000000000     0.0000000000     0.0000000000      0.0004049300     0.0000157500     0.0000479200
         0.0000000000     0.0000000000     0.0000000000     -0.0006347100    -0.0054058300     0.0000890000
         0.0000000000     0.0000000000     0.0000000000     -0.0004841700     0.0007884100     0.0003993800
         0.0000000000     0.0000000000     0.0000000000     -0.0054356900    -0.0004444300     0.0008820900
         0.0000000000     0.0000000000     0.0000000000      0.0034807400    -0.0005081200     0.0038682000
         0.0000000000     0.0000000000     0.0000000000     -0.0000072400     0.0004109300     0.0001233100
         0.0000000000     0.0000000000     0.0000000000      0.0000310200     0.0081104800    -0.0004866500
         0.0000000000     0.0000000000     0.0000000000     -0.0044488200    -0.0014743200     0.0017516300
         0.0000000000     0.0000000000     0.0000000000     -0.0045559900     0.0057167100    -0.0037862000
         0.0000000000     0.0000000000     0.0000000000      0.0053175700     0.0032482900    -0.0075249100
         0.0000000000     0.0000000000     0.0000000000      0.0085587000    -0.0007506000    -0.0050101000
         0.0000000000     0.0000000000     0.0000000000     -0.0068665600     0.0017849700     0.0028628900
