CRYSTAL
PRIMVEC
     9.8639806455    0.0000000000    0.0000000000
     0.0000000000   29.9999950877    0.0000000000
     0.0000000000    0.0000000000   15.5000027228
PRIMCOORD
 52 1
         0.0000000000     0.0000000000     0.0000000000     -0.0030421800    -0.0470087700    -0.0001148800
         0.0000000000     0.0000000000     0.0000000000     -0.0001743700    -0.0002652000    -0.0000235400
         0.0000000000     0.0000000000     0.0000000000      0.0001923700     0.0334689800     0.0002676800
         0.0000000000     0.0000000000     0.0000000000      0.0000348300     0.0002402400     0.0000346500
         0.0000000000     0.0000000000     0.0000000000      0.0011203900    -0.0487224000    -0.0004834200
         0.0000000000     0.0000000000     0.0000000000      0.0000886100    -0.0002747500     0.0000314500
         0.0000000000     0.0000000000     0.0000000000     -0.0018150500     0.0336090500     0.0002715200
         0.0000000000     0.0000000000     0.0000000000     -0.0001150200     0.0000657400    -0.0000241000
         0.0000000000     0.0000000000     0.0000000000      0.0026522500    -0.0463900900    -0.0008150600
         0.0000000000     0.0000000000     0.0000000000      0.0002051700    -0.0003639300     0.0000527100
         0.0000000000     0.0000000000     0.0000000000     -0.0009951300     0.0343282400     0.0003200800
         0.0000000000     0.0000000000     0.0000000000     -0.0000243700    -0.0002216900     0.0000267400
         0.0000000000     0.0000000000     0.0000000000     -0.0006117700    -0.0439204900    -0.0003125700
         0.0000000000     0.0000000000     0.0000000000     -0.0001194700    -0.0004324200     0.0000173900
         0.0000000000     0.0000000000     0.0000000000      0.0023205700     0.0336671100     0.0001719400
         0.0000000000     0.0000000000     0.0000000000      0.0001035200    -0.0000193700     0.0000571500
         0.0000000000     0.0000000000     0.0000000000     -0.0001891200    -0.0000881200    -0.0000262000
         0.0000000000     0.0000000000     0.0000000000     -0.0001309300     0.0002435400    -0.0001149800
         0.0000000000     0.0000000000     0.0000000000      0.0000771000    -0.0002533900     0.0000030200
         0.0000000000     0.0000000000     0.0000000000     -0.0003416100     0.0002327200    -0.0003817000
         0.0000000000     0.0000000000     0.0000000000      0.0001085200    -0.0001472900    -0.0001338700
         0.0000000000     0.0000000000     0.0000000000      0.0001720800    -0.0000845600    -0.0004916100
         0.0000000000     0.0000000000     0.0000000000     -0.0001789400    -0.0001609000    -0.0000998400
         0.0000000000     0.0000000000     0.0000000000     -0.0003728100    -0.0016520000    -0.0011921200
         0.0000000000     0.0000000000     0.0000000000      0.0001901600     0.0000064600    -0.0001142300
         0.0000000000     0.0000000000     0.0000000000      0.0002183200    -0.0003370100    -0.0004841000
         0.0000000000     0.0000000000     0.0000000000     -0.0000462500     0.0000652100    -0.0000081200
         0.0000000000     0.0000000000     0.0000000000      0.0003114200    -0.0005758100    -0.0003854400
         0.0000000000     0.0000000000     0.0000000000     -0.0001083300     0.0001522500    -0.0000338300
         0.0000000000     0.0000000000     0.0000000000     -0.0002391000    -0.0002831300    -0.0000377800
         0.0000000000     0.0000000000     0.0000000000      0.0001707200    -0.0000743900    -0.0000126100
         0.0000000000     0.0000000000     0.0000000000      0.0002865500     0.0001390900    -0.0000671600
         0.0000000000     0.0000000000     0.0000000000      0.0000191700     0.0100454300     0.0001031300
         0.0000000000     0.0000000000     0.0000000000      0.0001032000     0.0100374800     0.0001808900
         0.0000000000     0.0000000000     0.0000000000      0.0001247300     0.0099571600     0.0001645300
         0.0000000000     0.0000000000     0.0000000000      0.0000539300     0.0099802100     0.0000796200
         0.0000000000     0.0000000000     0.0000000000      0.0000118000    -0.0055941000     0.0004951700
         0.0000000000     0.0000000000     0.0000000000      0.0001276200     0.0006429300     0.0010721400
         0.0000000000     0.0000000000     0.0000000000     -0.0008184900     0.0012530100    -0.0008491000
         0.0000000000     0.0000000000     0.0000000000     -0.0002633600     0.0006034400     0.0004077400
         0.0000000000     0.0000000000     0.0000000000      0.0001884400     0.0038303600     0.0120335300
         0.0000000000     0.0000000000     0.0000000000     -0.0001449900    -0.0054532500     0.0004426200
         0.0000000000     0.0000000000     0.0000000000     -0.0001552900     0.0003261900    -0.0013922700
         0.0000000000     0.0000000000     0.0000000000      0.0002673700     0.0080196100    -0.0003671000
         0.0000000000     0.0000000000     0.0000000000      0.0000406900    -0.0027915800     0.0047831600
         0.0000000000     0.0000000000     0.0000000000     -0.0001948800     0.0059781100    -0.0001580700
         0.0000000000     0.0000000000     0.0000000000      0.0019925900     0.0067758600    -0.0039439700
         0.0000000000     0.0000000000     0.0000000000      0.0008875000     0.0015661100    -0.0002053200
         0.0000000000     0.0000000000     0.0000000000     -0.0020696400     0.0068555000    -0.0027657400
         0.0000000000     0.0000000000     0.0000000000     -0.0000568400    -0.0053260400    -0.0000268600
         0.0000000000     0.0000000000     0.0000000000     -0.0002562000     0.0016832900    -0.0012551800
         0.0000000000     0.0000000000     0.0000000000      0.0003945400    -0.0033326100    -0.0046961000
