CRYSTAL
PRIMVEC
     9.8639806455    0.0000000000    0.0000000000
     0.0000000000   29.9999950877    0.0000000000
     0.0000000000    0.0000000000   15.5000027228
PRIMCOORD
 53 1
         0.0000000000     0.0000000000     0.0000000000     -0.0000336000    -0.0480673600    -0.0000125600
         0.0000000000     0.0000000000     0.0000000000     -0.0000085800    -0.0004541500    -0.0000000100
         0.0000000000     0.0000000000     0.0000000000     -0.0014395200     0.0337068600    -0.0002163000
         0.0000000000     0.0000000000     0.0000000000      0.0000027600     0.0001901200    -0.0000388100
         0.0000000000     0.0000000000     0.0000000000      0.0028313600    -0.0466605000     0.0003389800
         0.0000000000     0.0000000000     0.0000000000     -0.0000099200    -0.0004501300     0.0000030600
         0.0000000000     0.0000000000     0.0000000000     -0.0018323000     0.0339777300    -0.0003366100
         0.0000000000     0.0000000000     0.0000000000     -0.0000276700     0.0001756200     0.0000185300
         0.0000000000     0.0000000000     0.0000000000      0.0000495800    -0.0447098700     0.0011020000
         0.0000000000     0.0000000000     0.0000000000     -0.0000077100    -0.0004903600    -0.0000026800
         0.0000000000     0.0000000000     0.0000000000      0.0016507800     0.0339750000    -0.0003354400
         0.0000000000     0.0000000000     0.0000000000      0.0000118200     0.0001511100     0.0000066600
         0.0000000000     0.0000000000     0.0000000000     -0.0028267100    -0.0466222200     0.0003300000
         0.0000000000     0.0000000000     0.0000000000      0.0000015100    -0.0004623400    -0.0000026800
         0.0000000000     0.0000000000     0.0000000000      0.0013377500     0.0337064600    -0.0002157900
         0.0000000000     0.0000000000     0.0000000000     -0.0000091100     0.0001870200    -0.0000398600
         0.0000000000     0.0000000000     0.0000000000     -0.0000090900     0.0000743500    -0.0000635900
         0.0000000000     0.0000000000     0.0000000000     -0.0000013300     0.0001098500    -0.0000602900
         0.0000000000     0.0000000000     0.0000000000     -0.0000044900    -0.0002482300    -0.0000154500
         0.0000000000     0.0000000000     0.0000000000     -0.0000653400     0.0001916400    -0.0002662000
         0.0000000000     0.0000000000     0.0000000000      0.0000530400     0.0001050700    -0.0000389000
         0.0000000000     0.0000000000     0.0000000000     -0.0000154600     0.0000342400    -0.0002921700
         0.0000000000     0.0000000000     0.0000000000     -0.0000741300    -0.0001673000    -0.0000424700
         0.0000000000     0.0000000000     0.0000000000     -0.0005010800    -0.0002219100    -0.0010994900
         0.0000000000     0.0000000000     0.0000000000      0.0000072900     0.0003221100    -0.0000760200
         0.0000000000     0.0000000000     0.0000000000      0.0000122400    -0.0006552900    -0.0009342400
         0.0000000000     0.0000000000     0.0000000000      0.0000648800    -0.0001767600    -0.0000475100
         0.0000000000     0.0000000000     0.0000000000      0.0004623400    -0.0002687300    -0.0010613400
         0.0000000000     0.0000000000     0.0000000000     -0.0000662800     0.0000890300    -0.0000599600
         0.0000000000     0.0000000000     0.0000000000      0.0000220300     0.0000274900    -0.0002825500
         0.0000000000     0.0000000000     0.0000000000      0.0000026900    -0.0002468900    -0.0000183800
         0.0000000000     0.0000000000     0.0000000000      0.0000808300     0.0001846600    -0.0002603500
         0.0000000000     0.0000000000     0.0000000000      0.0000902600     0.0100350000    -0.0000595500
         0.0000000000     0.0000000000     0.0000000000      0.0000794100     0.0099982600    -0.0001857400
         0.0000000000     0.0000000000     0.0000000000      0.0000676100     0.0099974400    -0.0001842200
         0.0000000000     0.0000000000     0.0000000000      0.0000571300     0.0100341000    -0.0000582600
         0.0000000000     0.0000000000     0.0000000000     -0.0000938400    -0.0061035700     0.0013411800
         0.0000000000     0.0000000000     0.0000000000     -0.0013301200     0.0018534600     0.0016835400
         0.0000000000     0.0000000000     0.0000000000     -0.0002383500     0.0017121100    -0.0003228200
         0.0000000000     0.0000000000     0.0000000000      0.0015700200     0.0008175400     0.0011155400
         0.0000000000     0.0000000000     0.0000000000     -0.0019708800    -0.0067413500     0.0110508200
         0.0000000000     0.0000000000     0.0000000000     -0.0003905300    -0.0056051800    -0.0007188700
         0.0000000000     0.0000000000     0.0000000000     -0.0026610900     0.0008130500    -0.0015718600
         0.0000000000     0.0000000000     0.0000000000      0.0000495400     0.0054270500    -0.0007989500
         0.0000000000     0.0000000000     0.0000000000      0.0004424000    -0.0058359500    -0.0009561700
         0.0000000000     0.0000000000     0.0000000000     -0.0000012200     0.0055745400    -0.0003020400
         0.0000000000     0.0000000000     0.0000000000     -0.0002758600     0.0056516200    -0.0044910500
         0.0000000000     0.0000000000     0.0000000000      0.0002817800     0.0016934100    -0.0002879000
         0.0000000000     0.0000000000     0.0000000000      0.0000535200     0.0054240900    -0.0008769500
         0.0000000000     0.0000000000     0.0000000000      0.0000350400    -0.0049854000    -0.0001227300
         0.0000000000     0.0000000000     0.0000000000      0.0025739200     0.0007864200    -0.0014728100
         0.0000000000     0.0000000000     0.0000000000      0.0015494500    -0.0031550200     0.0085270100
         0.0000000000     0.0000000000     0.0000000000      0.0004532400     0.0153020800    -0.0072877600
