CRYSTAL
PRIMVEC
     9.8639806455    0.0000000000    0.0000000000
     0.0000000000   29.9999950877    0.0000000000
     0.0000000000    0.0000000000   15.5000027228
PRIMCOORD
 54 1
         0.0000000000     0.0000000000     0.0000000000     -0.0027521800    -0.0467722700    -0.0003024600
         0.0000000000     0.0000000000     0.0000000000     -0.0000079300    -0.0004100900    -0.0000098300
         0.0000000000     0.0000000000     0.0000000000      0.0004227200     0.0335950100     0.0001328500
         0.0000000000     0.0000000000     0.0000000000     -0.0000272400     0.0001767700    -0.0000057500
         0.0000000000     0.0000000000     0.0000000000      0.0009264500    -0.0481735700     0.0001842900
         0.0000000000     0.0000000000     0.0000000000     -0.0000007400    -0.0004364500    -0.0000412000
         0.0000000000     0.0000000000     0.0000000000     -0.0017784500     0.0338290200     0.0001505400
         0.0000000000     0.0000000000     0.0000000000     -0.0000440000     0.0001237500     0.0000190100
         0.0000000000     0.0000000000     0.0000000000      0.0028331300    -0.0465396600    -0.0001145700
         0.0000000000     0.0000000000     0.0000000000     -0.0000364400    -0.0004635300     0.0000212800
         0.0000000000     0.0000000000     0.0000000000     -0.0013143800     0.0340019700     0.0002530700
         0.0000000000     0.0000000000     0.0000000000     -0.0000216400     0.0001063500     0.0000026200
         0.0000000000     0.0000000000     0.0000000000     -0.0008459400    -0.0443879900    -0.0011000500
         0.0000000000     0.0000000000     0.0000000000     -0.0000315100    -0.0004924800    -0.0000268500
         0.0000000000     0.0000000000     0.0000000000      0.0023690700     0.0338715500     0.0003099300
         0.0000000000     0.0000000000     0.0000000000      0.0000031400     0.0001377300    -0.0000442700
         0.0000000000     0.0000000000     0.0000000000     -0.0000760900     0.0000352300    -0.0000436600
         0.0000000000     0.0000000000     0.0000000000     -0.0000604700     0.0001125300    -0.0002803600
         0.0000000000     0.0000000000     0.0000000000      0.0000294600    -0.0002447100    -0.0000742200
         0.0000000000     0.0000000000     0.0000000000     -0.0005624300     0.0001311500    -0.0007583200
         0.0000000000     0.0000000000     0.0000000000      0.0000405300    -0.0000915700    -0.0002156600
         0.0000000000     0.0000000000     0.0000000000      0.0002526000    -0.0003754100    -0.0006534200
         0.0000000000     0.0000000000     0.0000000000     -0.0000671200    -0.0001804000    -0.0001137700
         0.0000000000     0.0000000000     0.0000000000      0.0000938500    -0.0010044500    -0.0010818600
         0.0000000000     0.0000000000     0.0000000000      0.0000536400     0.0000858900    -0.0000777400
         0.0000000000     0.0000000000     0.0000000000      0.0000964200    -0.0001586600    -0.0003876900
         0.0000000000     0.0000000000     0.0000000000      0.0000145300    -0.0001388800     0.0000138900
         0.0000000000     0.0000000000     0.0000000000      0.0001784500    -0.0003027700    -0.0001517500
         0.0000000000     0.0000000000     0.0000000000     -0.0000609100     0.0000931800    -0.0000775600
         0.0000000000     0.0000000000     0.0000000000     -0.0001566200    -0.0002830300     0.0002065000
         0.0000000000     0.0000000000     0.0000000000      0.0000097000    -0.0001802700     0.0000338500
         0.0000000000     0.0000000000     0.0000000000      0.0001710700     0.0000381000    -0.0000312800
         0.0000000000     0.0000000000     0.0000000000      0.0000493700     0.0100403000     0.0000498000
         0.0000000000     0.0000000000     0.0000000000      0.0000824600     0.0100229100     0.0000327800
         0.0000000000     0.0000000000     0.0000000000      0.0000985700     0.0099665400     0.0001703200
         0.0000000000     0.0000000000     0.0000000000      0.0000749200     0.0099806900     0.0001968500
         0.0000000000     0.0000000000     0.0000000000      0.0003255300    -0.0062856900    -0.0003195500
         0.0000000000     0.0000000000     0.0000000000     -0.0003685500     0.0000419300     0.0009831800
         0.0000000000     0.0000000000     0.0000000000     -0.0012890700     0.0009689100    -0.0014105800
         0.0000000000     0.0000000000     0.0000000000      0.0001717500     0.0003975500     0.0019802200
         0.0000000000     0.0000000000     0.0000000000     -0.0001063300     0.0018963100     0.0113067400
         0.0000000000     0.0000000000     0.0000000000     -0.0001335800    -0.0059662100     0.0007539900
         0.0000000000     0.0000000000     0.0000000000      0.0011357100     0.0006001900    -0.0020220000
         0.0000000000     0.0000000000     0.0000000000      0.0000276300     0.0075472000    -0.0027242900
         0.0000000000     0.0000000000     0.0000000000      0.0000427800    -0.0007016600     0.0054396900
         0.0000000000     0.0000000000     0.0000000000     -0.0003241600     0.0058470600    -0.0005923500
         0.0000000000     0.0000000000     0.0000000000      0.0015790000     0.0060265800    -0.0023431000
         0.0000000000     0.0000000000     0.0000000000      0.0009748300     0.0014400000    -0.0008327700
         0.0000000000     0.0000000000     0.0000000000     -0.0013851900     0.0066347000    -0.0043025200
         0.0000000000     0.0000000000     0.0000000000     -0.0001753400    -0.0053859500    -0.0000271000
         0.0000000000     0.0000000000     0.0000000000     -0.0011946200     0.0017325800    -0.0011788300
         0.0000000000     0.0000000000     0.0000000000      0.0000382200    -0.0045761000    -0.0032756700
         0.0000000000     0.0000000000     0.0000000000     -0.0009309500    -0.0005645900     0.0012243300
         0.0000000000     0.0000000000     0.0000000000      0.0016563700     0.0046346900     0.0011552500
