CRYSTAL
PRIMVEC
     9.8639806455    0.0000000000    0.0000000000
     0.0000000000   29.9999950877    0.0000000000
     0.0000000000    0.0000000000   15.5000027228
PRIMCOORD
 55 1
         0.0000000000     0.0000000000     0.0000000000     -0.0041644600    -0.0460687400    -0.0001901400
         0.0000000000     0.0000000000     0.0000000000     -0.0000906700    -0.0018130500     0.0017844100
         0.0000000000     0.0000000000     0.0000000000      0.0002881800     0.0335258600    -0.0005115100
         0.0000000000     0.0000000000     0.0000000000      0.0014672200     0.0020522300     0.0007061000
         0.0000000000     0.0000000000     0.0000000000     -0.0000918700    -0.0503397200     0.0029874600
         0.0000000000     0.0000000000     0.0000000000      0.0028036900     0.0015390800    -0.0013262800
         0.0000000000     0.0000000000     0.0000000000     -0.0016765900     0.0338079100    -0.0004475000
         0.0000000000     0.0000000000     0.0000000000     -0.0010910300     0.0006336400    -0.0035510100
         0.0000000000     0.0000000000     0.0000000000      0.0032534100    -0.0481041200     0.0024593000
         0.0000000000     0.0000000000     0.0000000000     -0.0004593000     0.0014085900    -0.0006114300
         0.0000000000     0.0000000000     0.0000000000     -0.0010412000     0.0339723600    -0.0004111400
         0.0000000000     0.0000000000     0.0000000000      0.0010455200    -0.0013594900    -0.0010360700
         0.0000000000     0.0000000000     0.0000000000     -0.0000692700    -0.0436692800    -0.0006987500
         0.0000000000     0.0000000000     0.0000000000     -0.0040754300    -0.0011506400     0.0027622900
         0.0000000000     0.0000000000     0.0000000000      0.0022383800     0.0335577800     0.0000395400
         0.0000000000     0.0000000000     0.0000000000      0.0039406500    -0.0015059900    -0.0014450800
         0.0000000000     0.0000000000     0.0000000000      0.0001466000    -0.0018457900    -0.0012201300
         0.0000000000     0.0000000000     0.0000000000      0.0012317800     0.0023878500     0.0000953000
         0.0000000000     0.0000000000     0.0000000000      0.0010313900     0.0025792300    -0.0011652200
         0.0000000000     0.0000000000     0.0000000000      0.0006977600     0.0005897700    -0.0008414400
         0.0000000000     0.0000000000     0.0000000000     -0.0014164000    -0.0016560300     0.0015468000
         0.0000000000     0.0000000000     0.0000000000     -0.0009371400    -0.0030914000     0.0052504800
         0.0000000000     0.0000000000     0.0000000000     -0.0009411100     0.0027884000    -0.0031187700
         0.0000000000     0.0000000000     0.0000000000     -0.0001535000    -0.0006042600    -0.0028505800
         0.0000000000     0.0000000000     0.0000000000      0.0034202600    -0.0015657400     0.0052691000
         0.0000000000     0.0000000000     0.0000000000     -0.0000692300    -0.0024273500     0.0045779800
         0.0000000000     0.0000000000     0.0000000000     -0.0035223700     0.0019689200    -0.0019281600
         0.0000000000     0.0000000000     0.0000000000      0.0001919600    -0.0011196200    -0.0070534600
         0.0000000000     0.0000000000     0.0000000000      0.0039971600    -0.0014709000     0.0023252800
         0.0000000000     0.0000000000     0.0000000000     -0.0014835600    -0.0013811300    -0.0013638400
         0.0000000000     0.0000000000     0.0000000000     -0.0022044600    -0.0014576500    -0.0012325400
         0.0000000000     0.0000000000     0.0000000000      0.0021686800     0.0009481900     0.0029020100
         0.0000000000     0.0000000000     0.0000000000     -0.0000702500     0.0100306800    -0.0002546400
         0.0000000000     0.0000000000     0.0000000000      0.0000671000     0.0100448400    -0.0004241300
         0.0000000000     0.0000000000     0.0000000000      0.0001643600     0.0099771900    -0.0001576300
         0.0000000000     0.0000000000     0.0000000000      0.0000378300     0.0099297300     0.0000711000
         0.0000000000     0.0000000000     0.0000000000      0.0034472700    -0.0051827900    -0.0007035900
         0.0000000000     0.0000000000     0.0000000000     -0.0039408400     0.0067020400     0.0018723300
         0.0000000000     0.0000000000     0.0000000000     -0.0002530900     0.0024784700    -0.0007327400
         0.0000000000     0.0000000000     0.0000000000     -0.0048649200    -0.0086206900     0.0015105200
         0.0000000000     0.0000000000     0.0000000000      0.0003816300    -0.0087342800     0.0117481800
         0.0000000000     0.0000000000     0.0000000000     -0.0032615900    -0.0041246800     0.0008380500
         0.0000000000     0.0000000000     0.0000000000      0.0027382900    -0.0064086600    -0.0072619200
         0.0000000000     0.0000000000     0.0000000000     -0.0015421600     0.0081137600    -0.0019282400
         0.0000000000     0.0000000000     0.0000000000     -0.0010716500     0.0000572600     0.0031789200
         0.0000000000     0.0000000000     0.0000000000      0.0031458900     0.0014772100     0.0035146300
         0.0000000000     0.0000000000     0.0000000000     -0.0014328900     0.0039624400    -0.0091811300
         0.0000000000     0.0000000000     0.0000000000      0.0033712500     0.0022750700     0.0003709000
         0.0000000000     0.0000000000     0.0000000000     -0.0015665600     0.0126424200    -0.0042284600
         0.0000000000     0.0000000000     0.0000000000     -0.0015606500    -0.0036176700     0.0001210900
         0.0000000000     0.0000000000     0.0000000000     -0.0036856200     0.0024004500     0.0022049500
         0.0000000000     0.0000000000     0.0000000000      0.0045835400    -0.0033123000    -0.0061603300
         0.0000000000     0.0000000000     0.0000000000     -0.0005814400     0.0113834900    -0.0021164800
         0.0000000000     0.0000000000     0.0000000000      0.0082615900    -0.0033107400     0.0029640900
         0.0000000000     0.0000000000     0.0000000000     -0.0068021500     0.0107078700     0.0030515100
