CRYSTAL
PRIMVEC
 8.54286592742127 0.00000000000000 0.00000000000000
 0.00000000000000 29.99999936305714 0.00000000000000
 0.00000000000000 0.00000000000000 15.49999653852868
PRIMCOORD
 44 1
  6     1.42374298100000     2.99499287600000     5.00000000000000     0.00000000000000     0.00000000000000     0.00000000000000
  6     2.84748596200000     2.99499287600000     5.00000000000000     0.00000000000000     0.00000000000000     0.00000000000000
  6     0.71187149100000     4.22799046600000     5.00000000000000     0.00000000000000     0.00000000000000     0.00000000000000
  6     3.55935745300000     4.22799046600000     5.00000000000000     0.00000000000000     0.00000000000000     0.00000000000000
  6     1.42363562100000     5.45622198600000     4.99987976700000     0.00002259167414    -0.00001976653379     0.00000850376693
  6     2.84728084900000     5.45660716500000     5.00225407100000     0.00002112713650     0.00001365327023     0.00001673352359
  6     0.70967309500000     6.69300911900000     5.00114088300000     0.00000541406494    -0.00003877717719     0.00001810357492
  6     3.56127787600000     6.69391251700000     5.00495675000000    -0.00001219818123     0.00003668902998     0.00004872658449
  6     1.42591040500000     7.92578198100000     5.01027701700000    -0.00001929410229    -0.00003718035873    -0.00002138224951
  6     2.84533894900000     7.92767288900000     5.00635953200000    -0.00002376330425     0.00002353653713     0.00000811637310
  6     0.71371731300000     9.16300704500000     5.04898394900000    -0.00001293517436    -0.00003461033139    -0.00005296901933
  6     3.55678121100000     9.16557935800000     4.97263965900000    -0.00001572252019    -0.00000442195880     0.00003337256087
  6     1.42505841700000    10.39157273300000     5.09361136400000     0.00000613216082    -0.00003169070475     0.00001806578041
  6     2.84714351600000    10.40206475600000     4.94782878800000     0.00000581090740     0.00000418574305     0.00002673017404
  6     5.69497192400000     2.99499287600000     5.00000000000000     0.00000000000000     0.00000000000000     0.00000000000000
  6     7.11871490500000     2.99499287600000     5.00000000000000     0.00000000000000     0.00000000000000     0.00000000000000
  6     4.98310043400000     4.22799046600000     5.00000000000000     0.00000000000000     0.00000000000000     0.00000000000000
  6     7.83058639500000     4.22799046600000     5.00000000000000     0.00000000000000     0.00000000000000     0.00000000000000
  6     5.69492101100000     5.45572301000000     5.00088221700000    -0.00001902009203     0.00000786126009    -0.00002885611577
  6     7.11857046300000     5.45572343000000     4.99963487600000    -0.00001131001001     0.00001259502368     0.00004938798859
  6     4.98075757600000     6.69305658000000     5.00171544900000    -0.00002295072207     0.00000616995534     0.00001052577373
  6     7.83293085000000     6.69247350700000     5.00101818200000     0.00001858545505     0.00000284403761    -0.00002611601310
  6     5.69576224800000     7.92545827800000     4.99673873800000    -0.00000334481499    -0.00001962480434    -0.00004810297492
  6     7.11739813500000     7.92483743500000     5.00319942400000     0.00000968484567     0.00001458868460    -0.00005297846796
  6     4.98290281500000     9.16119854000000     4.96716788400000    -0.00002770338292    -0.00003993935867    -0.00003480875262
  6     7.82928953800000     9.15929121900000     5.03419246800000    -0.00001435246885     0.00001623274620     0.00001878387628
  6     5.69027205500000    10.39448946600000     4.93943190600000    -0.00005022891665    -0.00002321528371    -0.00000857935597
  6     7.12265753200000    10.39326216000000     5.04317110700000    -0.00004528728320     0.00000746441764     0.00000140784586
  1     0.90511317300000     2.02921292800000     5.00000000000000     0.00000000000000     0.00000000000000     0.00000000000000
  1     3.36611577100000     2.02921292800000     5.00000000000000     0.00000000000000     0.00000000000000     0.00000000000000
  1     5.17634211700000     2.02921292800000     5.00000000000000     0.00000000000000     0.00000000000000     0.00000000000000
  1     7.63734470500000     2.02921292800000     5.00000000000000     0.00000000000000     0.00000000000000     0.00000000000000
  1     2.00139016600000    12.72663343200000     6.59672764700000     0.00002681521171     0.00004078028673    -0.00000741717449
  1     0.67523878500000    13.69464964800000     5.82696867100000    -0.00003643391697     0.00001074309222     0.00002472706450
  6     0.69194274600000    11.60534899500000     5.30023845500000    -0.00001254778053    -0.00003994880730     0.00007295287160
  1     2.25555138900000    15.02722335000000     4.05139205800000     0.00004651560509    -0.00002756165347    -0.00000641561972
  1     1.80393579500000    14.61392821200000     3.42854208300000    -0.00000591484233     0.00004272670449     0.00000376055471
 78     2.70540052500000    13.33822162800000     4.23320979500000     0.00002733488636    -0.00002913012604    -0.00006940963539
  6     3.57255374800000    11.61691216100000     4.72057909800000     0.00000806912995    -0.00001213204082    -0.00004990766323
  1     7.32001184900000    12.52939439200000     5.37933881000000     0.00001926575640     0.00003088757121     0.00002257277688
  6     4.95607937600000    11.59183891500000     4.76410458500000    -0.00000938248951     0.00001939803722     0.00005132495772
  6     7.85507729200000    11.58672240100000     5.22220082400000    -0.00001265171546     0.00000658569505    -0.00000769118475
  6     1.37628529900000    12.85377976700000     5.69257256900000     0.00000074644176     0.00001297296888    -0.00001060136277
  1     5.50579833600000    12.52637266500000     4.60710349600000     0.00000317473965     0.00001484379760    -0.00000595263685
