CRYSTAL
PRIMVEC
 8.54286567244700 0.00000000000000 0.00000000000000
 0.00000000000000 30.00000000000000 0.00000000000000
 0.00000000000000 0.00000000000000 15.50000000000000
PRIMCOORD
 42 1
  6     1.42374298100000     2.99499287600000     5.00000000000000
  6     2.84748596200000     2.99499287600000     5.00000000000000
  6     0.71187149100000     4.22799046600000     5.00000000000000
  6     3.55935745300000     4.22799046600000     5.00000000000000
  6     1.42352093300000     5.46202974300000     4.99530601100000
  6     2.84677525200000     5.45511758200000     4.99587929900000
  6     0.71287202200000     6.70835121000000     4.98651539000000
  6     3.56102980900000     6.69320206200000     4.98844324400000
  6     1.42475445300000     7.95494238200000     4.97822403700000
  6     2.84806150100000     7.92794679400000     4.98002108000000
  6     0.74310883800000     9.20775605600000     4.96399498600000
  6     3.55858614800000     9.15383920600000     4.96800609500000
  6     1.46316771800000    10.48129478200000     4.95589659000000
  6     2.90687726100000    10.43109264200000     4.95573893200000
  6     5.69497192400000     2.99499287600000     5.00000000000000
  6     7.11871490500000     2.99499287600000     5.00000000000000
  6     4.98310043400000     4.22799046600000     5.00000000000000
  6     7.83058639500000     4.22799046600000     5.00000000000000
  6     5.69908153300000     5.44436016600000     4.99466884900000
  6     7.12197369400000     5.45167454900000     4.99447060800000
  6     4.98406062900000     6.67461273400000     4.98636867200000
  6     7.83770845000000     6.69361436900000     4.98505932100000
  6     5.69998153800000     7.89229331400000     4.97308246700000
  6     7.13483337700000     7.92279561000000     4.97113686300000
  6     4.96638612900000     9.09220607100000     4.96285701700000
  6     7.85760863400000     9.16706653300000     4.95539979200000
  6     5.69743869300000    10.28596225500000     4.94519958500000
  6     7.09784746600000    10.34276015400000     4.93414574900000
  1     0.90511317300000     2.02921292800000     5.00000000000000
  1     3.36611577100000     2.02921292800000     5.00000000000000
  1     5.17634211700000     2.02921292800000     5.00000000000000
  1     7.63734470500000     2.02921292800000     5.00000000000000
  1     1.13989326600000    13.90749760300000     4.88491528000000
  6     3.01304872500000    12.87769406400000     4.91246649900000
  1     3.59651722000000    13.80646683300000     4.88379209800000
  6     5.14190745700000    11.56613741000000     4.94123198500000
  6     1.62838968000000    12.92771927900000     4.91170145400000
  6     0.81087757300000    11.76494618100000     4.94339804100000
  6     3.71305451600000    11.65096259100000     4.94033881300000
 78     7.39614216300000    12.25499936400000     4.94596104900000
  8     7.39614000000000    13.85950000000000     6.03590000000000
  1     7.39614000000000    13.73614200000000     7.00676000000000
