CRYSTAL
PRIMVEC
 8.54286567244700 0.00000000000000 0.00000000000000
 0.00000000000000 30.00000000000000 0.00000000000000
 0.00000000000000 0.00000000000000 15.50000000000000
PRIMCOORD
 42 1
  6     1.42374298100500     2.99499287608100     5.00000000000000
  6     2.84748596201000     2.99499287608100     5.00000000000000
  6     0.71187149050300     4.22799046607000     5.00000000000000
  6     3.55935745251300     4.22799046607000     5.00000000000000
  6     1.42000129078100     5.47386438041300     4.99999959570000
  6     2.84597037411800     5.46587040259800     4.99999964720000
  6     0.70997274308900     6.72868975152600     4.99999837140000
  6     3.55504395745000     6.71288564243600     4.99999961370000
  6     1.41765861663800     7.98567136187100     4.99999799310000
  6     2.84171111927500     7.95666490278800     4.99999913090000
  6     0.74482573495300     9.25280395128800     4.99999885970000
  6     3.54479382963900     9.19146479732700     4.99999918950000
  6     1.46298037029500    10.53795797230400     5.00000105930000
  6     2.90595575705600    10.48486061135300     5.00000247280000
  6     5.69497192402100     2.99499287608100     5.00000000000000
  6     7.11871490492600     2.99499287608100     5.00000000000000
  6     4.98310043351800     4.22799046607000     5.00000000000000
  6     7.83058639542800     4.22799046607000     5.00000000000000
  6     5.69523194530900     5.45622195517800     4.99999962450000
  6     7.12030443939200     5.46159510397800     4.99999930750000
  6     4.97934685726600     6.69356130028400     4.99999928100000
  6     7.83225125975600     6.71020624963000     4.99999821400000
  6     5.69169179704100     7.92061979603900     4.99999930040000
  6     7.12729448561100     7.94482703660700     4.99999852620000
  6     4.95213284830700     9.12629847474900     5.00000023420000
  6     7.85670449526200     9.18997561998100     4.99999945990000
  6     5.66561528857300    10.33490730943100     5.00000155750000
  6     7.06128050737000    10.33886729051000     5.00000127610000
  1     0.90511317313900     2.02921292757800     5.00000000000000
  1     3.36611577107400     2.02921292757800     5.00000000000000
  1     5.17634211735200     2.02921292757800     5.00000000000000
  1     7.63734470530400     2.02921292757800     5.00000000000000
  1     1.15272275929300    13.99737433070300     5.00002644620000
  6     3.02521396700400    12.94504338968900     5.00002594060000
  1     3.62359009384900    13.87582361773300     5.00002943440000
  6     5.16764352753000    11.67140261516300     5.00000628590000
  6     1.63380210930300    12.99759585541300     5.00002438920000
  6     0.80165447566500    11.83928531165500     5.00000623060000
  6     3.72303858361500    11.70641026895900     5.00001248200000
 78     7.38175020668000    12.18239574017700     5.00000469590000
  8     8.78000000000000    13.58200000000000     5.00000000000000
  1     9.77574000000000    13.58200000000000     5.00000000000000
