CRYSTAL
PRIMVEC
 8.54286567244700 0.00000000000000 0.00000000000000
 0.00000000000000 30.00000000000000 0.00000000000000
 0.00000000000000 0.00000000000000 15.50000000000000
PRIMCOORD
 43 1
  6     1.42374298100000     2.99499287600000     5.00000000000000
  6     2.84748596200000     2.99499287600000     5.00000000000000
  6     0.71187149100000     4.22799046600000     5.00000000000000
  6     3.55935745300000     4.22799046600000     5.00000000000000
  6     1.42327467900000     5.46474442000000     5.00000521800000
  6     2.84654664900000     5.45617158900000     5.00000486700000
  6     0.71338964200000     6.71388335400000     5.00001086900000
  6     3.56046966800000     6.69462364700000     5.00000658300000
  6     1.42427423100000     7.96733757900000     4.99999824000000
  6     2.84649623700000     7.93328152200000     4.99999393100000
  6     0.74908014400000     9.22814889100000     4.99998853500000
  6     3.55444701000000     9.15733950600000     4.99998362200000
  6     1.46760557200000    10.51842931400000     4.99998058800000
  6     2.91517499700000    10.44743163500000     4.99997756000000
  6     5.69497192400000     2.99499287600000     5.00000000000000
  6     7.11871490500000     2.99499287600000     5.00000000000000
  6     4.98310043400000     4.22799046600000     5.00000000000000
  6     7.83058639500000     4.22799046600000     5.00000000000000
  6     5.69880593800000     5.44307553400000     5.00001584100000
  6     7.12216889600000     5.44952582400000     5.00001608400000
  6     4.98236491800000     6.67157623700000     5.00001772700000
  6     7.83901067100000     6.68920661100000     5.00001900400000
  6     5.69945771800000     7.88897629500000     5.00000845400000
  6     7.13616316700000     7.91517280300000     5.00000761400000
  6     4.96073397900000     9.08534439300000     4.99998412000000
  6     7.86046830400000     9.15706652100000     4.99998532100000
  6     5.69564722900000    10.27076031800000     4.99996411400000
  6     7.08795915700000    10.30915078800000     4.99996549100000
  1     0.90511317300000     2.02921292800000     5.00000000000000
  1     3.36611577100000     2.02921292800000     5.00000000000000
  1     5.17634211700000     2.02921292800000     5.00000000000000
  1     7.63734470500000     2.02921292800000     5.00000000000000
  1     1.24785102700000    13.95841672800000     5.00002557500000
  6     3.07354467000000    12.88615871200000     4.99999352200000
  1     3.67396068100000    13.80473525200000     5.00000769600000
  6     5.18908541000000    11.58744493000000     4.99996687200000
  6     1.69142394200000    12.95836946700000     5.00000298500000
  6     0.82598308700000    11.83404839400000     4.99998819300000
  6     3.74959808300000    11.65244265800000     4.99997585200000
 78     7.33219490700000    12.24667349300000     4.99997999400000
  8     7.43917612000000    12.87527770000000     2.14802480000000
  8     7.34352900000000    13.45837000000000     3.49981300000000
  1     6.49055900000000    12.86347400000000     1.88905400000000
