CRYSTAL
PRIMVEC
     9.8639806455    0.0000000000    0.0000000000
     0.0000000000   29.9999950877    0.0000000000
     0.0000000000    0.0000000000   15.5000027228
PRIMCOORD
 45 1
         0.0000000000     0.0000000000     0.0000000000      0.0049288200    -0.0431535900     0.0000018700
         0.0000000000     0.0000000000     0.0000000000      0.0000904300    -0.0003905700     0.0000000700
         0.0000000000     0.0000000000     0.0000000000     -0.0030952400     0.0336168700    -0.0000008000
         0.0000000000     0.0000000000     0.0000000000     -0.0000853500     0.0001810800    -0.0000015300
         0.0000000000     0.0000000000     0.0000000000     -0.0005336900    -0.0447794200     0.0000023100
         0.0000000000     0.0000000000     0.0000000000      0.0000322800    -0.0004954600    -0.0000002500
         0.0000000000     0.0000000000     0.0000000000     -0.0015575500     0.0341545700    -0.0000005800
         0.0000000000     0.0000000000     0.0000000000      0.0000585900     0.0001331600    -0.0000011600
         0.0000000000     0.0000000000     0.0000000000     -0.0047801200    -0.0476079000     0.0000029000
         0.0000000000     0.0000000000     0.0000000000     -0.0000251400    -0.0005572900     0.0000004400
         0.0000000000     0.0000000000     0.0000000000      0.0031210500     0.0345665900    -0.0000006700
         0.0000000000     0.0000000000     0.0000000000      0.0000871000     0.0001300600    -0.0000005500
         0.0000000000     0.0000000000     0.0000000000      0.0003005000    -0.0511439100     0.0000028200
         0.0000000000     0.0000000000     0.0000000000      0.0000114900    -0.0003972300    -0.0000000400
         0.0000000000     0.0000000000     0.0000000000      0.0012297100     0.0340084100    -0.0000006500
         0.0000000000     0.0000000000     0.0000000000      0.0000383100     0.0002623500    -0.0000009100
         0.0000000000     0.0000000000     0.0000000000      0.0000138600     0.0000714500    -0.0000004100
         0.0000000000     0.0000000000     0.0000000000     -0.0002494600     0.0001722900     0.0000003700
         0.0000000000     0.0000000000     0.0000000000      0.0000955500    -0.0003685600     0.0000006600
         0.0000000000     0.0000000000     0.0000000000      0.0003514100     0.0004606800     0.0000002200
         0.0000000000     0.0000000000     0.0000000000     -0.0002414700     0.0003108200    -0.0000010800
         0.0000000000     0.0000000000     0.0000000000      0.0002146500    -0.0013391900     0.0000007300
         0.0000000000     0.0000000000     0.0000000000     -0.0000000000    -0.0001207100     0.0000000900
         0.0000000000     0.0000000000     0.0000000000     -0.0010142400    -0.0019048900    -0.0000001900
         0.0000000000     0.0000000000     0.0000000000      0.0002226200     0.0003196700     0.0000013600
         0.0000000000     0.0000000000     0.0000000000      0.0000215300    -0.0009703600    -0.0000000900
         0.0000000000     0.0000000000     0.0000000000     -0.0000702600    -0.0001696600    -0.0000003300
         0.0000000000     0.0000000000     0.0000000000      0.0004008500    -0.0003148900    -0.0000010100
         0.0000000000     0.0000000000     0.0000000000      0.0000418500     0.0000743800     0.0000010800
         0.0000000000     0.0000000000     0.0000000000     -0.0001068800    -0.0000359200    -0.0000003100
         0.0000000000     0.0000000000     0.0000000000     -0.0000245900    -0.0002366500     0.0000001800
         0.0000000000     0.0000000000     0.0000000000      0.0000340600     0.0001038600     0.0000003400
         0.0000000000     0.0000000000     0.0000000000     -0.0000151800     0.0098264600    -0.0000002200
         0.0000000000     0.0000000000     0.0000000000     -0.0002473200     0.0099473200    -0.0000002700
         0.0000000000     0.0000000000     0.0000000000      0.0001080000     0.0100356000    -0.0000003000
         0.0000000000     0.0000000000     0.0000000000      0.0004388100     0.0099668100    -0.0000002400
         0.0000000000     0.0000000000     0.0000000000      0.0022837600     0.0038530300     0.0000006100
         0.0000000000     0.0000000000     0.0000000000      0.0003075300    -0.0043626600    -0.0000006500
         0.0000000000     0.0000000000     0.0000000000     -0.0001792800    -0.0045439200    -0.0000004100
         0.0000000000     0.0000000000     0.0000000000     -0.0068297300    -0.0020452500    -0.0000002800
         0.0000000000     0.0000000000     0.0000000000      0.0005430600     0.0074761600    -0.0000041400
         0.0000000000     0.0000000000     0.0000000000      0.0005548600     0.0055402300     0.0000010700
         0.0000000000     0.0000000000     0.0000000000      0.0011584500     0.0059476700    -0.0000001700
         0.0000000000     0.0000000000     0.0000000000      0.0025699600     0.0015219900    -0.0000002800
         0.0000000000     0.0000000000     0.0000000000     -0.0002035800     0.0022564900     0.0000004000
