CRYSTAL
PRIMVEC
     9.8639806455    0.0000000000    0.0000000000
     0.0000000000   29.9999950877    0.0000000000
     0.0000000000    0.0000000000   15.5000027228
PRIMCOORD
 46 1
         0.0000000000     0.0000000000     0.0000000000      0.0033155000    -0.0414348700     0.0000023400
         0.0000000000     0.0000000000     0.0000000000      0.0002269400    -0.0006114700     0.0000003600
         0.0000000000     0.0000000000     0.0000000000      0.0001336600     0.0325869600    -0.0000012500
         0.0000000000     0.0000000000     0.0000000000      0.0000481200     0.0002428000    -0.0000005900
         0.0000000000     0.0000000000     0.0000000000     -0.0037628400    -0.0438546900     0.0000024600
         0.0000000000     0.0000000000     0.0000000000      0.0000725700    -0.0006626700     0.0000001100
         0.0000000000     0.0000000000     0.0000000000     -0.0008167000     0.0320533100    -0.0000010000
         0.0000000000     0.0000000000     0.0000000000      0.0000773500     0.0001204700    -0.0000008600
         0.0000000000     0.0000000000     0.0000000000     -0.0017860600    -0.0468582100     0.0000035000
         0.0000000000     0.0000000000     0.0000000000     -0.0001089000    -0.0006925900    -0.0000003300
         0.0000000000     0.0000000000     0.0000000000     -0.0001199100     0.0332984200    -0.0000011300
         0.0000000000     0.0000000000     0.0000000000     -0.0000777700     0.0001951000    -0.0000011900
         0.0000000000     0.0000000000     0.0000000000      0.0022083300    -0.0486928200     0.0000046800
         0.0000000000     0.0000000000     0.0000000000     -0.0001539000    -0.0005751100    -0.0000009500
         0.0000000000     0.0000000000     0.0000000000      0.0005628200     0.0336952300    -0.0000009200
         0.0000000000     0.0000000000     0.0000000000     -0.0000655600     0.0007359600    -0.0000002200
         0.0000000000     0.0000000000     0.0000000000      0.0002088900     0.0000210400    -0.0000000000
         0.0000000000     0.0000000000     0.0000000000      0.0001008000    -0.0000938600     0.0000004600
         0.0000000000     0.0000000000     0.0000000000     -0.0003140300    -0.0003558600     0.0000003400
         0.0000000000     0.0000000000     0.0000000000      0.0003856300     0.0003958300     0.0000001500
         0.0000000000     0.0000000000     0.0000000000     -0.0000858500     0.0006784300    -0.0000005000
         0.0000000000     0.0000000000     0.0000000000     -0.0007249500    -0.0003926300     0.0000007300
         0.0000000000     0.0000000000     0.0000000000      0.0000733700    -0.0004857700     0.0000001900
         0.0000000000     0.0000000000     0.0000000000     -0.0013234400    -0.0041636300    -0.0000001200
         0.0000000000     0.0000000000     0.0000000000     -0.0001252200     0.0005502400     0.0000008900
         0.0000000000     0.0000000000     0.0000000000      0.0006163700     0.0001254300     0.0000003600
         0.0000000000     0.0000000000     0.0000000000      0.0002956400    -0.0002466000    -0.0000010400
         0.0000000000     0.0000000000     0.0000000000     -0.0003009400     0.0000305900    -0.0000004400
         0.0000000000     0.0000000000     0.0000000000     -0.0001271800    -0.0000029000     0.0000001500
         0.0000000000     0.0000000000     0.0000000000      0.0000187300     0.0000686500    -0.0000001800
         0.0000000000     0.0000000000     0.0000000000     -0.0001022000    -0.0005333900    -0.0000004600
         0.0000000000     0.0000000000     0.0000000000     -0.0001944000     0.0004526000    -0.0000003200
         0.0000000000     0.0000000000     0.0000000000      0.0000941800     0.0098823900    -0.0000003200
         0.0000000000     0.0000000000     0.0000000000     -0.0001963500     0.0101078200    -0.0000003800
         0.0000000000     0.0000000000     0.0000000000      0.0000086400     0.0100971200    -0.0000005200
         0.0000000000     0.0000000000     0.0000000000      0.0003889100     0.0099049100    -0.0000002800
         0.0000000000     0.0000000000     0.0000000000      0.0020682800     0.0032541000     0.0000001200
         0.0000000000     0.0000000000     0.0000000000      0.0003624500    -0.0044167000    -0.0000002500
         0.0000000000     0.0000000000     0.0000000000      0.0003835500    -0.0050965100    -0.0000001900
         0.0000000000     0.0000000000     0.0000000000     -0.0066909000    -0.0024120600    -0.0000000400
         0.0000000000     0.0000000000     0.0000000000     -0.0017045700     0.0016008800    -0.0000048400
         0.0000000000     0.0000000000     0.0000000000     -0.0000419900     0.0054128400     0.0000005800
         0.0000000000     0.0000000000     0.0000000000      0.0016208300     0.0064932100     0.0000004100
         0.0000000000     0.0000000000     0.0000000000      0.0059525200     0.0003559400    -0.0000004100
         0.0000000000     0.0000000000     0.0000000000     -0.0000140000     0.0017659100     0.0000006200
         0.0000000000     0.0000000000     0.0000000000     -0.0003864300     0.0074561500     0.0000002600
