CRYSTAL
PRIMVEC
 9.86398064105027 0.00000000000000 0.00000000000000
 0.00000000000000 29.99999507430976 0.00000000000000
 0.00000000000000 0.00000000000000 15.50000271584972
PRIMCOORD
 49 1
  6     0.71187149000000     2.92123941900000     5.00000000000000     0.00000000000000     0.00000000000000     0.00000000000000
  6     0.71234685700000     4.35925366300000     5.00061931300000     0.00002032400296     0.00000822975666     0.00000261727049
  6     1.94486908000000     2.20936792800000     5.00000000000000     0.00000000000000     0.00000000000000     0.00000000000000
  6     1.94426809800000     5.06482581100000     4.99159837600000     0.00000645341423    -0.00000419519168    -0.00005248713920
  6     3.17786667000000     2.92123941900000     5.00000000000000     0.00000000000000     0.00000000000000     0.00000000000000
  6     3.17918824000000     4.35872334600000     4.99184487700000    -0.00000529123275    -0.00000919351691     0.00005700358430
  6     4.41086426000000     2.20936792800000     5.00000000000000     0.00000000000000     0.00000000000000     0.00000000000000
  6     4.41114815800000     5.06610026000000     4.99236009300000    -0.00000048188013     0.00000953366759    -0.00001006279086
  6     5.64386185000000     2.92123941900000     5.00000000000000     0.00000000000000     0.00000000000000     0.00000000000000
  6     5.64258315700000     4.35891123500000     5.00441792400000    -0.00000146453764    -0.00001175409562     0.00001947362626
  6     6.87685944000000     2.20936792800000     5.00000000000000     0.00000000000000     0.00000000000000     0.00000000000000
  6     6.87663092100000     5.06636444300000     5.01963659400000    -0.00000188972598    -0.00000267396227     0.00001405956132
  6     8.10985703000000     2.92123941900000     5.00000000000000     0.00000000000000     0.00000000000000     0.00000000000000
  6     8.10811859700000     4.35947475300000     5.01086440900000     0.00000599043137    -0.00000025511301    -0.00004676126947
  6     9.34285462000000     2.20936792800000     5.00000000000000     0.00000000000000     0.00000000000000     0.00000000000000
  6     9.34186036700000     5.06478274900000     5.01087586000000     0.00001267061272    -0.00000973208882     0.00003828584843
  6     0.71287916100000     7.19777657200000     5.00649901700000     0.00002070194815     0.00000267396227     0.00000695419162
  6     0.71300429800000     8.62802992700000     5.00845666400000     0.00000255113008    -0.00001488159212    -0.00003485599577
  6     1.94380170800000     6.49491901300000     4.97941036500000     0.00002296017070     0.00001391783187     0.00005599258090
  6     1.92773453200000     9.34013101900000     4.86403690000000     0.00000465817455    -0.00000002834589    -0.00003203085543
  6     3.17993576100000     7.20836601900000     4.95227797400000     0.00001475875993     0.00001559968800    -0.00001762169480
  6     3.18384090600000     8.63534065800000     4.86170349300000     0.00001777287288     0.00003068914998    -0.00001168795521
  6     4.41083930400000     6.49980596300000     4.98132618500000     0.00000345819855     0.00000044408561    -0.00002779786922
  6     4.41307687500000     9.33691346600000     4.84467448600000     0.00001321863326    -0.00000215428762    -0.00003066080409
  6     5.64136438800000     7.21329511800000     5.02480913100000     0.00000663293820    -0.00000088817121     0.00004920846462
  6     5.63640723100000     8.64197538400000     5.04558488500000     0.00001859490368     0.00001334146545     0.00001899174614
  6     6.87695470900000     6.49707762800000     5.04514330500000    -0.00000031180479    -0.00000564083206     0.00000072754450
  6     6.88036169300000     9.34419229100000     5.25241161400000     0.00003478040673     0.00001036514702    -0.00006586639917
  6     8.10629618800000     7.20157683900000     5.05857804100000     0.00001774452699    -0.00001596818456     0.00005294067344
  6     8.10708320400000     8.63146122100000     5.15277081500000     0.00002075863993    -0.00001629888661     0.00000317473965
  6     9.34154893600000     6.49344570200000     5.02610156700000     0.00001743272220    -0.00000830534570    -0.00000973208882
  6     9.34662490200000     9.33270198900000     5.13829888700000     0.00002124052006    -0.00001075254085     0.00000749276353
  1     1.94450233900000     1.10952337400000     5.00000000000000     0.00000000000000     0.00000000000000     0.00000000000000
  1     4.41049752000000     1.10952337400000     5.00000000000000     0.00000000000000     0.00000000000000     0.00000000000000
  1     6.87649270100000     1.10952337400000     5.00000000000000     0.00000000000000     0.00000000000000     0.00000000000000
  1     9.34248788200000     1.10952337400000     5.00000000000000     0.00000000000000     0.00000000000000     0.00000000000000
  1     3.11000204800000    12.52602976200000     4.50082226600000    -0.00001684690715    -0.00000781401694     0.00001771618110
  6     1.89026619000000    10.76041786800000     4.76097105700000     0.00001898229751     0.00000145508901     0.00003057576642
  6     6.94965580400000    10.73877148800000     5.58735116000000     0.00003518669782    -0.00000207869858    -0.00000720930463
  6     0.71770918000000    11.44117208300000     5.00604512400000     0.00000027401027    -0.00001479655445    -0.00001352098941
  1     5.17041002800000    11.00258185100000     3.74923807600000     0.00000436526702    -0.00003417569442    -0.00001640282154
  6     3.10668460000000    11.45379055900000     4.22553850000000     0.00000966594841    -0.00002014447899    -0.00000328812321
  1     8.17682464700000    12.51311436000000     5.68802353600000     0.00002519004736    -0.00001339815723    -0.00002935689316
 78     5.34467700100000    11.65795258300000     6.13407561000000     0.00001900119477    -0.00000680301354    -0.00000997775319
  6     8.14758008800000    11.43102894300000     5.51254180800000     0.00001768783521    -0.00001373830790     0.00000972264019
  6     4.44130779300000    10.79140864300000     4.55830891100000     0.00002201530771     0.00000479045537    -0.00000085982532
  1     3.01779582000000    11.44839214100000     3.11461089700000     0.00003207809858    -0.00001534457499    -0.00002133500636
  1     0.70560694900000    12.53921322100000     4.96844489300000     0.00000405346224    -0.00002237435565     0.00001776342425
  6     9.35977364800000    10.75441607900000     5.22909180400000     0.00002329087275    -0.00002301686248     0.00001411625310
