CRYSTAL
PRIMVEC
     9.8639806455    0.0000000000    0.0000000000
     0.0000000000   29.9999950877    0.0000000000
     0.0000000000    0.0000000000   15.5000027228
PRIMCOORD
 47 1
         0.0000000000     0.0000000000     0.0000000000     -0.0046381100    -0.0464838900     0.0003714700
         0.0000000000     0.0000000000     0.0000000000     -0.0000604800    -0.0004906900    -0.0000427300
         0.0000000000     0.0000000000     0.0000000000      0.0012484300     0.0339842300    -0.0003019900
         0.0000000000     0.0000000000     0.0000000000     -0.0000348500     0.0002966200     0.0000017600
         0.0000000000     0.0000000000     0.0000000000     -0.0000184800    -0.0497878900     0.0015836200
         0.0000000000     0.0000000000     0.0000000000      0.0000201500    -0.0004608900    -0.0000713900
         0.0000000000     0.0000000000     0.0000000000     -0.0013844100     0.0339868300    -0.0003033700
         0.0000000000     0.0000000000     0.0000000000      0.0000167300     0.0003164900     0.0000292500
         0.0000000000     0.0000000000     0.0000000000      0.0046174500    -0.0464919500     0.0003620000
         0.0000000000     0.0000000000     0.0000000000      0.0000474200    -0.0004984000    -0.0000250800
         0.0000000000     0.0000000000     0.0000000000     -0.0017479200     0.0340681300     0.0000065200
         0.0000000000     0.0000000000     0.0000000000      0.0000263800     0.0001143300    -0.0000540500
         0.0000000000     0.0000000000     0.0000000000     -0.0000046700    -0.0435430600    -0.0012464900
         0.0000000000     0.0000000000     0.0000000000     -0.0000294000    -0.0005629000     0.0000221900
         0.0000000000     0.0000000000     0.0000000000      0.0016052200     0.0340663800     0.0000033300
         0.0000000000     0.0000000000     0.0000000000      0.0000292500     0.0001123000    -0.0000255600
         0.0000000000     0.0000000000     0.0000000000      0.0000494000     0.0000758100     0.0000478200
         0.0000000000     0.0000000000     0.0000000000     -0.0001817900     0.0000187800     0.0000899600
         0.0000000000     0.0000000000     0.0000000000     -0.0000371100    -0.0002218000     0.0000312200
         0.0000000000     0.0000000000     0.0000000000      0.0000176600     0.0001014600     0.0002488600
         0.0000000000     0.0000000000     0.0000000000     -0.0000204700     0.0000477400     0.0001505500
         0.0000000000     0.0000000000     0.0000000000     -0.0000018300     0.0002573100    -0.0000129800
         0.0000000000     0.0000000000     0.0000000000      0.0000328800    -0.0002455800    -0.0000157300
         0.0000000000     0.0000000000     0.0000000000      0.0000081200     0.0000893700     0.0001875900
         0.0000000000     0.0000000000     0.0000000000     -0.0000302500     0.0000963100     0.0000530400
         0.0000000000     0.0000000000     0.0000000000      0.0001912300     0.0000226100     0.0001143900
         0.0000000000     0.0000000000     0.0000000000     -0.0000500800    -0.0002310900     0.0000474000
         0.0000000000     0.0000000000     0.0000000000     -0.0008712200    -0.0005543400     0.0004009800
         0.0000000000     0.0000000000     0.0000000000      0.0000140200     0.0001293000    -0.0001250300
         0.0000000000     0.0000000000     0.0000000000      0.0000129100    -0.0004343700     0.0002216500
         0.0000000000     0.0000000000     0.0000000000      0.0000103800    -0.0002210200     0.0000305700
         0.0000000000     0.0000000000     0.0000000000      0.0008719600    -0.0005585300     0.0003563000
         0.0000000000     0.0000000000     0.0000000000     -0.0000331700     0.0099716700    -0.0002280900
         0.0000000000     0.0000000000     0.0000000000      0.0001771100     0.0099717900    -0.0002274000
         0.0000000000     0.0000000000     0.0000000000      0.0001575300     0.0098747200     0.0000930100
         0.0000000000     0.0000000000     0.0000000000     -0.0000125900     0.0098744600     0.0000921800
         0.0000000000     0.0000000000     0.0000000000      0.0000787800    -0.0048587900     0.0001103700
         0.0000000000     0.0000000000     0.0000000000     -0.0031529500    -0.0002661700     0.0000698600
         0.0000000000     0.0000000000     0.0000000000     -0.0000856500     0.0020171100     0.0004509200
         0.0000000000     0.0000000000     0.0000000000      0.0008707500     0.0050624400     0.0004537900
         0.0000000000     0.0000000000     0.0000000000      0.0000109700     0.0086450700    -0.0049078600
         0.0000000000     0.0000000000     0.0000000000      0.0031286800    -0.0002886000     0.0001147900
         0.0000000000     0.0000000000     0.0000000000      0.0000803900     0.0020561500     0.0004566700
         0.0000000000     0.0000000000     0.0000000000     -0.0000054100    -0.0049385200     0.0001192000
         0.0000000000     0.0000000000     0.0000000000     -0.0008602300     0.0050318900     0.0005002000
         0.0000000000     0.0000000000     0.0000000000      0.0000218400     0.0057401700     0.0006424300
         0.0000000000     0.0000000000     0.0000000000     -0.0000845700    -0.0048910000     0.0001238300
