CRYSTAL
PRIMVEC
     9.8639806455    0.0000000000    0.0000000000
     0.0000000000   29.9999950877    0.0000000000
     0.0000000000    0.0000000000   15.5000027228
PRIMCOORD
 48 1
         0.0000000000     0.0000000000     0.0000000000     -0.0010662900    -0.0460910200     0.0005978600
         0.0000000000     0.0000000000     0.0000000000     -0.0007939700    -0.0001378400    -0.0000320500
         0.0000000000     0.0000000000     0.0000000000     -0.0008916200     0.0337049900    -0.0004486500
         0.0000000000     0.0000000000     0.0000000000      0.0004806100     0.0000711100    -0.0000139500
         0.0000000000     0.0000000000     0.0000000000      0.0000029600    -0.0473754300     0.0016588600
         0.0000000000     0.0000000000     0.0000000000     -0.0000193700     0.0000719500    -0.0000408100
         0.0000000000     0.0000000000     0.0000000000      0.0007481700     0.0337044500    -0.0004496700
         0.0000000000     0.0000000000     0.0000000000     -0.0004942600     0.0000701500    -0.0000495800
         0.0000000000     0.0000000000     0.0000000000      0.0010695200    -0.0460908900     0.0006365300
         0.0000000000     0.0000000000     0.0000000000      0.0007895500    -0.0001365700    -0.0000367700
         0.0000000000     0.0000000000     0.0000000000      0.0003162400     0.0332416100    -0.0001988900
         0.0000000000     0.0000000000     0.0000000000     -0.0002636800    -0.0009339400    -0.0000109100
         0.0000000000     0.0000000000     0.0000000000      0.0000019600    -0.0452333900    -0.0006420800
         0.0000000000     0.0000000000     0.0000000000      0.0000034100    -0.0002344000     0.0000022000
         0.0000000000     0.0000000000     0.0000000000     -0.0004570000     0.0332421600    -0.0001949400
         0.0000000000     0.0000000000     0.0000000000      0.0002443700    -0.0009300600     0.0000016500
         0.0000000000     0.0000000000     0.0000000000     -0.0007810100    -0.0008454800     0.0001382000
         0.0000000000     0.0000000000     0.0000000000     -0.0021101600     0.0004905600    -0.0002275100
         0.0000000000     0.0000000000     0.0000000000      0.0009230300     0.0000513000     0.0000556600
         0.0000000000     0.0000000000     0.0000000000      0.0006381000    -0.0000155000     0.0000628800
         0.0000000000     0.0000000000     0.0000000000      0.0000173500    -0.0016276100     0.0000065800
         0.0000000000     0.0000000000     0.0000000000     -0.0000059700     0.0009246300     0.0001418500
         0.0000000000     0.0000000000     0.0000000000     -0.0008758900     0.0000472700     0.0000435500
         0.0000000000     0.0000000000     0.0000000000     -0.0006614800    -0.0000162600     0.0000504200
         0.0000000000     0.0000000000     0.0000000000      0.0008191000    -0.0008197100     0.0001290600
         0.0000000000     0.0000000000     0.0000000000      0.0020907600     0.0005030000    -0.0002549800
         0.0000000000     0.0000000000     0.0000000000     -0.0009254300     0.0006769100     0.0000604100
         0.0000000000     0.0000000000     0.0000000000     -0.0009071700    -0.0026651800     0.0009025500
         0.0000000000     0.0000000000     0.0000000000      0.0000174000     0.0001474300    -0.0003086400
         0.0000000000     0.0000000000     0.0000000000     -0.0000162500     0.0000387400     0.0003394200
         0.0000000000     0.0000000000     0.0000000000      0.0009443600     0.0006717500     0.0000759100
         0.0000000000     0.0000000000     0.0000000000      0.0008841100    -0.0026882300     0.0009320900
         0.0000000000     0.0000000000     0.0000000000     -0.0000355400     0.0100733600    -0.0002923500
         0.0000000000     0.0000000000     0.0000000000      0.0001823300     0.0100733200    -0.0002958100
         0.0000000000     0.0000000000     0.0000000000      0.0001818300     0.0100811400    -0.0000273100
         0.0000000000     0.0000000000     0.0000000000     -0.0000348200     0.0100812100    -0.0000234800
         0.0000000000     0.0000000000     0.0000000000      0.0003028500    -0.0049284000     0.0002991800
         0.0000000000     0.0000000000     0.0000000000     -0.0014938300    -0.0043804000    -0.0022636100
         0.0000000000     0.0000000000     0.0000000000      0.0007285300     0.0014141600     0.0012906900
         0.0000000000     0.0000000000     0.0000000000      0.0009398700     0.0076576000    -0.0012068900
         0.0000000000     0.0000000000     0.0000000000     -0.0000148500     0.0201464300     0.0059329600
         0.0000000000     0.0000000000     0.0000000000      0.0015135300    -0.0043884900    -0.0023283700
         0.0000000000     0.0000000000     0.0000000000     -0.0007036000     0.0014183600     0.0012279200
         0.0000000000     0.0000000000     0.0000000000     -0.0000053700    -0.0049039800     0.0001684000
         0.0000000000     0.0000000000     0.0000000000     -0.0009431200     0.0076616400    -0.0012069700
         0.0000000000     0.0000000000     0.0000000000      0.0000230500     0.0073228200     0.0006694900
         0.0000000000     0.0000000000     0.0000000000     -0.0003628300    -0.0049311300     0.0003193000
         0.0000000000     0.0000000000     0.0000000000      0.0000005100    -0.0042141300    -0.0051894100
