CRYSTAL
PRIMVEC
     9.8639806455    0.0000000000    0.0000000000
     0.0000000000   29.9999950877    0.0000000000
     0.0000000000    0.0000000000   15.5000027228
PRIMCOORD
 50 1
         0.0000000000     0.0000000000     0.0000000000     -0.0045850900    -0.0465150200     0.0003621100
         0.0000000000     0.0000000000     0.0000000000      0.0000709800    -0.0005945900     0.0000585200
         0.0000000000     0.0000000000     0.0000000000      0.0012192200     0.0342262900    -0.0006038300
         0.0000000000     0.0000000000     0.0000000000      0.0000486800     0.0001959000     0.0000622200
         0.0000000000     0.0000000000     0.0000000000      0.0005166200    -0.0496313500     0.0016349400
         0.0000000000     0.0000000000     0.0000000000      0.0000807000    -0.0004797700     0.0000033000
         0.0000000000     0.0000000000     0.0000000000     -0.0013999500     0.0341514700    -0.0005984600
         0.0000000000     0.0000000000     0.0000000000      0.0000586700     0.0003755200     0.0001431100
         0.0000000000     0.0000000000     0.0000000000      0.0049852600    -0.0465271800     0.0005784300
         0.0000000000     0.0000000000     0.0000000000      0.0000281400    -0.0004224600     0.0002631400
         0.0000000000     0.0000000000     0.0000000000     -0.0017762800     0.0342308200    -0.0003111100
         0.0000000000     0.0000000000     0.0000000000     -0.0000975200     0.0001679100    -0.0001460600
         0.0000000000     0.0000000000     0.0000000000      0.0002739500    -0.0434487300    -0.0011549300
         0.0000000000     0.0000000000     0.0000000000     -0.0000582600    -0.0006376800     0.0002740700
         0.0000000000     0.0000000000     0.0000000000      0.0016161100     0.0341626000    -0.0002723600
         0.0000000000     0.0000000000     0.0000000000     -0.0000072300    -0.0000965800     0.0001047700
         0.0000000000     0.0000000000     0.0000000000      0.0000227500    -0.0001571800     0.0004151200
         0.0000000000     0.0000000000     0.0000000000     -0.0001063300    -0.0000931900     0.0005026700
         0.0000000000     0.0000000000     0.0000000000      0.0001250500    -0.0003636700     0.0001850500
         0.0000000000     0.0000000000     0.0000000000     -0.0001419900     0.0000599100     0.0005820100
         0.0000000000     0.0000000000     0.0000000000      0.0000365300     0.0001172900     0.0003496500
         0.0000000000     0.0000000000     0.0000000000     -0.0001122700     0.0002721200     0.0002369800
         0.0000000000     0.0000000000     0.0000000000      0.0000145700    -0.0000920600    -0.0001457100
         0.0000000000     0.0000000000     0.0000000000     -0.0001542100     0.0001418600    -0.0002043100
         0.0000000000     0.0000000000     0.0000000000     -0.0001145900     0.0001910100    -0.0002645400
         0.0000000000     0.0000000000     0.0000000000     -0.0000174900     0.0000502900    -0.0003310300
         0.0000000000     0.0000000000     0.0000000000     -0.0000488800    -0.0002007200    -0.0001953900
         0.0000000000     0.0000000000     0.0000000000     -0.0011892200    -0.0005336700    -0.0001037400
         0.0000000000     0.0000000000     0.0000000000      0.0000877600     0.0000596000     0.0002259500
         0.0000000000     0.0000000000     0.0000000000     -0.0002281700    -0.0003872600     0.0001887000
         0.0000000000     0.0000000000     0.0000000000      0.0000379900    -0.0004708200     0.0004354100
         0.0000000000     0.0000000000     0.0000000000      0.0002722700    -0.0006195900     0.0004214200
         0.0000000000     0.0000000000     0.0000000000     -0.0000036000     0.0098548100    -0.0003062500
         0.0000000000     0.0000000000     0.0000000000      0.0002107400     0.0098454700    -0.0003219800
         0.0000000000     0.0000000000     0.0000000000      0.0001814800     0.0097577500    -0.0000108100
         0.0000000000     0.0000000000     0.0000000000      0.0000008500     0.0097542700     0.0000131200
         0.0000000000     0.0000000000     0.0000000000     -0.0002302800    -0.0054339000     0.0006054000
         0.0000000000     0.0000000000     0.0000000000     -0.0028248500    -0.0002619700     0.0005330800
         0.0000000000     0.0000000000     0.0000000000     -0.0003143900     0.0020156800     0.0007303800
         0.0000000000     0.0000000000     0.0000000000      0.0006697300     0.0049027200     0.0008674400
         0.0000000000     0.0000000000     0.0000000000      0.0044268000     0.0019533700    -0.0000323300
         0.0000000000     0.0000000000     0.0000000000      0.0039968700    -0.0003886200     0.0006246000
         0.0000000000     0.0000000000     0.0000000000      0.0000897100     0.0021201200     0.0000567200
         0.0000000000     0.0000000000     0.0000000000      0.0002182200    -0.0050745200    -0.0001284200
         0.0000000000     0.0000000000     0.0000000000     -0.0013197100     0.0049103100     0.0014924500
         0.0000000000     0.0000000000     0.0000000000     -0.0000747300     0.0057973300     0.0007312300
         0.0000000000     0.0000000000     0.0000000000     -0.0002101700    -0.0051924300    -0.0000134000
         0.0000000000     0.0000000000     0.0000000000     -0.0031568300     0.0094645100    -0.0161902500
         0.0000000000     0.0000000000     0.0000000000     -0.0037347000    -0.0078201400     0.0017643800
         0.0000000000     0.0000000000     0.0000000000      0.0026170600     0.0066641800     0.0068885100
