CRYSTAL
PRIMVEC
     9.8639806455    0.0000000000    0.0000000000
     0.0000000000   29.9999950877    0.0000000000
     0.0000000000    0.0000000000   15.5000027228
PRIMCOORD
 49 1
         0.0000000000     0.0000000000     0.0000000000     -0.0006472300    -0.0462606200     0.0000771500
         0.0000000000     0.0000000000     0.0000000000     -0.0003075100    -0.0003076800     0.0000195000
         0.0000000000     0.0000000000     0.0000000000     -0.0010279000     0.0338043300    -0.0001298600
         0.0000000000     0.0000000000     0.0000000000      0.0003686300    -0.0001047700     0.0000335600
         0.0000000000     0.0000000000     0.0000000000      0.0000076000    -0.0469210000     0.0009652900
         0.0000000000     0.0000000000     0.0000000000     -0.0000052900    -0.0001055700    -0.0000023000
         0.0000000000     0.0000000000     0.0000000000      0.0008848500     0.0338027000    -0.0001315800
         0.0000000000     0.0000000000     0.0000000000     -0.0003626100    -0.0001091600     0.0000201600
         0.0000000000     0.0000000000     0.0000000000      0.0006538900    -0.0462548800     0.0000907400
         0.0000000000     0.0000000000     0.0000000000      0.0003121400    -0.0003080700     0.0000115300
         0.0000000000     0.0000000000     0.0000000000      0.0003685800     0.0333674600     0.0000904400
         0.0000000000     0.0000000000     0.0000000000     -0.0002015600    -0.0004813900    -0.0000491800
         0.0000000000     0.0000000000     0.0000000000      0.0000087900    -0.0459732800    -0.0010224600
         0.0000000000     0.0000000000     0.0000000000     -0.0000031400     0.0000490700    -0.0000011300
         0.0000000000     0.0000000000     0.0000000000     -0.0005108000     0.0333646500     0.0000912200
         0.0000000000     0.0000000000     0.0000000000      0.0001821900    -0.0004915200    -0.0000336400
         0.0000000000     0.0000000000     0.0000000000     -0.0005057700    -0.0002138300     0.0001468600
         0.0000000000     0.0000000000     0.0000000000     -0.0014218700     0.0004641900    -0.0002529400
         0.0000000000     0.0000000000     0.0000000000      0.0004843000    -0.0000097200     0.0000422900
         0.0000000000     0.0000000000     0.0000000000      0.0004036000     0.0004351800     0.0000730000
         0.0000000000     0.0000000000     0.0000000000      0.0000038200    -0.0006043600     0.0000824200
         0.0000000000     0.0000000000     0.0000000000      0.0000054300     0.0002682300     0.0001530000
         0.0000000000     0.0000000000     0.0000000000     -0.0004778100    -0.0000215900     0.0000551300
         0.0000000000     0.0000000000     0.0000000000     -0.0003859300     0.0004488000     0.0000790700
         0.0000000000     0.0000000000     0.0000000000      0.0004918900    -0.0002075500     0.0001607200
         0.0000000000     0.0000000000     0.0000000000      0.0014110500     0.0004657900    -0.0002547100
         0.0000000000     0.0000000000     0.0000000000     -0.0002260700     0.0004525500     0.0000202300
         0.0000000000     0.0000000000     0.0000000000     -0.0001989700    -0.0019653000    -0.0004729400
         0.0000000000     0.0000000000     0.0000000000     -0.0000030300    -0.0008469200     0.0001234900
         0.0000000000     0.0000000000     0.0000000000      0.0000012900     0.0010002000     0.0003480100
         0.0000000000     0.0000000000     0.0000000000      0.0002140600     0.0004475700     0.0000209200
         0.0000000000     0.0000000000     0.0000000000      0.0001913500    -0.0019499800    -0.0004645100
         0.0000000000     0.0000000000     0.0000000000     -0.0000276700     0.0100175800    -0.0001268500
         0.0000000000     0.0000000000     0.0000000000      0.0001745300     0.0100171000    -0.0001279400
         0.0000000000     0.0000000000     0.0000000000      0.0001807100     0.0100437500     0.0001027100
         0.0000000000     0.0000000000     0.0000000000     -0.0000336000     0.0100437700     0.0001035900
         0.0000000000     0.0000000000     0.0000000000     -0.0000864000    -0.0049246200     0.0005257900
         0.0000000000     0.0000000000     0.0000000000     -0.0044131800    -0.0016216700     0.0010228200
         0.0000000000     0.0000000000     0.0000000000      0.0008816500     0.0020222900     0.0002099700
         0.0000000000     0.0000000000     0.0000000000     -0.0001438900     0.0070419200     0.0004085000
         0.0000000000     0.0000000000     0.0000000000     -0.0000135200     0.0015478200     0.0044014800
         0.0000000000     0.0000000000     0.0000000000      0.0044035300    -0.0016067500     0.0010395800
         0.0000000000     0.0000000000     0.0000000000     -0.0008628800     0.0020347300     0.0002223000
         0.0000000000     0.0000000000     0.0000000000      0.0000079900    -0.0049781400    -0.0000911200
         0.0000000000     0.0000000000     0.0000000000      0.0001559700     0.0070567800     0.0004126400
         0.0000000000     0.0000000000     0.0000000000      0.0000074400     0.0065534100     0.0007524200
         0.0000000000     0.0000000000     0.0000000000      0.0000607500    -0.0049362200     0.0005281000
         0.0000000000     0.0000000000     0.0000000000      0.0000082600     0.0027939800    -0.0162318600
         0.0000000000     0.0000000000     0.0000000000     -0.0000076600     0.0036607500     0.0069583800
