CRYSTAL
PRIMVEC
 9.86398064105027 0.00000000000000 0.00000000000000
 0.00000000000000 29.99999507430976 0.00000000000000
 0.00000000000000 0.00000000000000 15.50000271584972
PRIMCOORD
 49 1
  6     0.71187149000000     2.92123941900000     5.00000000000000     0.00000000000000     0.00000000000000     0.00000000000000
  6     0.71605315200000     4.35851542900000     5.00156477700000     0.00001489104075     0.00001839648245    -0.00005191077278
  6     1.94486908000000     2.20936792800000     5.00000000000000     0.00000000000000     0.00000000000000     0.00000000000000
  6     1.94603203200000     5.07405443500000     5.00758353200000     0.00002225152346     0.00000603767452    -0.00003304185883
  6     3.17786667000000     2.92123941900000     5.00000000000000     0.00000000000000     0.00000000000000     0.00000000000000
  6     3.17396636500000     4.36350932000000     5.00585053300000     0.00001611936264    -0.00000016062671     0.00003398672182
  6     4.41086426000000     2.20936792800000     5.00000000000000     0.00000000000000     0.00000000000000     0.00000000000000
  6     4.40767476700000     5.07173294500000     5.00527511900000     0.00001238715382    -0.00000029290753     0.00004690299892
  6     5.64386185000000     2.92123941900000     5.00000000000000     0.00000000000000     0.00000000000000     0.00000000000000
  6     5.63990457200000     4.35911603700000     4.99771520800000     0.00001222652712    -0.00000232436296     0.00005135330361
  6     6.87685944000000     2.20936792800000     5.00000000000000     0.00000000000000     0.00000000000000     0.00000000000000
  6     6.87292956400000     5.05791775800000     4.99148212200000     0.00001220762986    -0.00000590539370     0.00001103599975
  6     8.10985703000000     2.92123941900000     5.00000000000000     0.00000000000000     0.00000000000000     0.00000000000000
  6     8.11334469000000     4.35644522900000     4.99568860200000     0.00001789570507     0.00000360937663    -0.00000510226016
  6     9.34285462000000     2.20936792800000     5.00000000000000     0.00000000000000     0.00000000000000     0.00000000000000
  6     9.34883425800000     5.05898882200000     4.99725392000000     0.00001061081140     0.00001868938998     0.00002002164680
  6     0.70921410700000     7.22520568000000     5.00714423800000    -0.00001060136277    -0.00001456978734     0.00001805633178
  6     0.69996695600000     8.67498944900000     5.00406075100000    -0.00000744552038    -0.00003045293423    -0.00003471426632
  6     1.94519601100000     6.51529174700000     5.01773774100000     0.00000573531836    -0.00000019842123     0.00000212594173
  6     1.94927194200000     9.36607477500000     5.01581915200000    -0.00001245329423    -0.00002107989335    -0.00003223872528
  6     3.17255643500000     7.22758391400000     5.03618048600000     0.00000026456164     0.00000899509568    -0.00003263556774
  6     3.16294270900000     8.66891620600000     5.05439345500000     0.00000229601707     0.00000805968132    -0.00001890670847
  6     4.40673174900000     6.50333286500000     5.01318418900000    -0.00000452589373     0.00000304245883    -0.00003057576642
  6     4.44285693000000     9.37652605500000     5.05913284000000     0.00000559358891     0.00000056691780    -0.00000518729783
  6     5.64444905200000     7.19605838900000     4.98914060400000    -0.00000579201014    -0.00000108659244     0.00000141729449
  6     5.65103826400000     8.63141978000000     5.00122201100000     0.00000634003068     0.00000340150677     0.00003508276289
  6     6.87054798300000     6.48163118400000     4.98156390300000    -0.00001285958532    -0.00000475266085    -0.00001554299622
  6     6.88913574400000     9.30272828800000     5.00385562700000     0.00000649120875     0.00001624219483     0.00003886221486
  6     8.11753421200000     7.17432300200000     4.98011673000000    -0.00002485934532     0.00001720595508    -0.00002748606443
  6     8.12676722200000     8.58230239600000     4.98394696600000    -0.00000363772252     0.00001588314689    -0.00001269895861
  6     9.35352457300000     6.48941069100000     4.99369915700000    -0.00002379165014     0.00001797129411     0.00003672682450
  6     9.30196143700000     9.34008609800000     4.99683340500000     0.00000491328756    -0.00000855101008    -0.00000748331490
  1     1.94450233900000     1.10952337400000     5.00000000000000     0.00000000000000     0.00000000000000     0.00000000000000
  1     4.41049752000000     1.10952337400000     5.00000000000000     0.00000000000000     0.00000000000000     0.00000000000000
  1     6.87649270100000     1.10952337400000     5.00000000000000     0.00000000000000     0.00000000000000     0.00000000000000
  1     9.34248788200000     1.10952337400000     5.00000000000000     0.00000000000000     0.00000000000000     0.00000000000000
  6     3.24134837400000    11.52688628200000     5.47623076500000    -0.00001143284220     0.00000966594841    -0.00001116828056
  6     1.99889082100000    10.86879959600000     4.85292039500000    -0.00002626719117    -0.00001581700648    -0.00000083147943
  1     1.09053137600000    11.34165401800000     5.35710897100000    -0.00001897284888    -0.00002138224951     0.00002913957467
  1     8.47561274500000    12.96602521400000     4.63523329700000    -0.00000260782186     0.00002179798922    -0.00002457588642
 78     8.89931833300000    11.30351490600000     5.03415757000000     0.00000918406828     0.00000764394160    -0.00000621719849
  6     4.52463188500000    10.77649456900000     5.17537972400000     0.00000468652044    -0.00000088817121     0.00000951477033
  1     3.31715926200000    12.58137754300000     5.15331727700000    -0.00001499497568    -0.00000150233216    -0.00001914292422
  1     5.79400243400000    12.53119489200000     5.24561310700000     0.00000841872926    -0.00002939468768     0.00002264836592
  1     8.52516472800000    12.95932451200000     5.50599116200000    -0.00005365876931    -0.00003917401964    -0.00001314304422
  6     5.78117651300000    11.43648479800000     5.15742342400000     0.00000371331156    -0.00001705477700     0.00002989546506
  1     3.11596498800000    11.54230219700000     6.58092327000000     0.00002309245152     0.00001667683181    -0.00000395897594
  6     6.97033488200000    10.70763851000000     5.06020408700000     0.00001419184214     0.00000147398627     0.00002831754387
  1     1.92802202100000    11.11920035200000     3.77314321700000     0.00001769728384     0.00002257277688     0.00000249443830
