CRYSTAL
PRIMVEC
 8.54286592742127 0.00000000000000 0.00000000000000
 0.00000000000000 29.99999936305714 0.00000000000000
 0.00000000000000 0.00000000000000 15.49999653852868
PRIMCOORD
 42 1
  6     1.42374298100000     2.99499287600000     5.00000000000000     0.00000000000000     0.00000000000000     0.00000000000000
  6     2.84748596200000     2.99499287600000     5.00000000000000     0.00000000000000     0.00000000000000     0.00000000000000
  6     0.71187149100000     4.22799046600000     5.00000000000000     0.00000000000000     0.00000000000000     0.00000000000000
  6     3.55935745300000     4.22799046600000     5.00000000000000     0.00000000000000     0.00000000000000     0.00000000000000
  6     1.42419131100000     5.45396733200000     5.00000517900000    -0.00000336371225    -0.00001045018469     0.00000009448630
  6     2.84775256000000     5.45484631100000     5.00000746800000     0.00000023621575    -0.00000120942463    -0.00000010393493
  6     0.70963136600000     6.69211939900000     5.00000157100000    -0.00003909843061     0.00002241215017    -0.00000019842123
  6     3.56149411400000     6.69528399300000     5.00000729700000    -0.00003511110878    -0.00001703587974    -0.00000010393493
  6     1.42253331300000     7.92740143300000     4.99999154000000     0.00000836203748     0.00001273675313    -0.00000035904794
  6     2.84896614300000     7.93066561600000     4.99999642600000     0.00003667013272    -0.00004136610179     0.00000018897260
  6     0.71874051300000     9.15759714900000     4.99998634800000     0.00000651955464    -0.00001132890727     0.00000010393493
  6     3.55245358600000     9.16525500300000     4.99999947700000     0.00002992381095    -0.00000901399294    -0.00000013228082
  6     1.41903992100000    10.40516638800000     4.99999356100000     0.00001771618110     0.00001032735250     0.00000027401027
  6     2.85173308900000    10.41277081500000     5.00000242700000     0.00000251333556     0.00001926575640    -0.00000051967465
  6     5.69497192400000     2.99499287600000     5.00000000000000     0.00000000000000     0.00000000000000     0.00000000000000
  6     7.11871490500000     2.99499287600000     5.00000000000000     0.00000000000000     0.00000000000000     0.00000000000000
  6     4.98310043400000     4.22799046600000     5.00000000000000     0.00000000000000     0.00000000000000     0.00000000000000
  6     7.83058639500000     4.22799046600000     5.00000000000000     0.00000000000000     0.00000000000000     0.00000000000000
  6     5.69501669200000     5.45322786900000     5.00001414500000    -0.00000775732516     0.00001788625644     0.00000013228082
  6     7.11802883700000     5.45191804800000     5.00001268100000     0.00000279679446     0.00004151727986    -0.00000045353424
  6     4.98056044300000     6.69216351700000     5.00001275200000     0.00007446465239     0.00001437136611     0.00000035904794
  6     7.83321317000000     6.68833262300000     5.00000641500000    -0.00000624554438     0.00002377275288    -0.00000000944863
  6     5.69202056400000     7.92463455400000     5.00000611100000     0.00000293852390     0.00001050687647    -0.00000008503767
  6     7.12189846500000     7.92012746300000     5.00000009900000     0.00000570697247     0.00004550460169     0.00000000000000
  6     4.97502398000000     9.15625831000000     5.00000453300000     0.00001218873260     0.00000710536970    -0.00000055746917
  6     7.83689177100000     9.14791750000000     4.99999052300000     0.00000732268819     0.00004989821460    -0.00000048188013
  6     5.69324062800000    10.38140616800000     5.00000213100000     0.00002147673581    -0.00000169130476    -0.00000028345890
  6     7.12747581500000    10.37571065700000     4.99999324900000    -0.00000505501701    -0.00003826695117     0.00000013228082
  1     0.90511317300000     2.02921292800000     5.00000000000000     0.00000000000000     0.00000000000000     0.00000000000000
  1     3.36611577100000     2.02921292800000     5.00000000000000     0.00000000000000     0.00000000000000     0.00000000000000
  1     5.17634211700000     2.02921292800000     5.00000000000000     0.00000000000000     0.00000000000000     0.00000000000000
  1     7.63734470500000     2.02921292800000     5.00000000000000     0.00000000000000     0.00000000000000     0.00000000000000
 78     6.29273519300000    13.11013976500000     5.00001881900000    -0.00001370996201    -0.00003926850594     0.00000077478765
  6     1.42057578800000    12.83806706800000     5.00004964700000    -0.00002649395829     0.00002106099609    -0.00000029290753
  1     3.33996536000000    13.80707844000000     5.00007647200000     0.00006564908068     0.00004953916667    -0.00000052912328
  1     0.87276420000000    13.78983876200000     5.00007494500000    -0.00008958246026    -0.00003955196484    -0.00000005669178
  6     2.79834111600000    12.85692136200000     5.00004994000000    -0.00000736993134     0.00004756440301     0.00000010393493
  1     5.11297564300000    14.22730328400000     5.00001103500000    -0.00001815081807    -0.00001569417430    -0.00000006614041
  6     5.02393455400000    11.64594722300000     5.00001246400000    -0.00000701088340    -0.00001559023937     0.00000025511301
  6     3.58098392500000    11.66409508600000     5.00001997500000    -0.00002628608843     0.00004350149215    -0.00000060471231
  6     0.66460360600000    11.63218699600000     5.00001299600000    -0.00000888171212    -0.00001468317089     0.00000031180479
  6     7.77051142300000    11.64383129500000     5.00000759100000     0.00000869273953     0.00000392118142     0.00000068030135
