CRYSTAL
PRIMVEC
     8.5428625638    0.0000000000    0.0000000000
     0.0000000000   29.9999875511    0.0000000000
     0.0000000000    0.0000000000   15.4999904357
PRIMCOORD
 44 1
  C      1.4237429810     2.9949928760     5.0000000000      0.0881112500     0.0120610600    -0.0000007500
  C      2.8474859620     2.9949928760     5.0000000000     -0.0885434000     0.0128162300    -0.0000010300
  C      0.7118714910     4.2279904660     5.0000000000      0.0168241500    -0.0211144400     0.0000006600
  C      3.5593574530     4.2279904660     5.0000000000     -0.0157473200    -0.0184360700     0.0000008100
  C      1.4245973590     5.4536217930     5.0000093810      0.0000270400    -0.0000005800     0.0000002100
  C      2.8484021620     5.4569047430     5.0000130890     -0.0000038800     0.0000011000    -0.0000000700
  C      0.7088368510     6.6885342890     5.0000250740      0.0000122900     0.0000520700    -0.0000000800
  C      3.5629236730     6.6957619690     5.0000281050     -0.0000031800    -0.0000395100    -0.0000001300
  C      1.4234723130     7.9222192710     5.0000358550      0.0000329200     0.0000487800    -0.0000001200
  C      2.8496384630     7.9337436540     5.0000358980      0.0000163300    -0.0000108700     0.0000001600
  C      0.7123307130     9.1491768870     5.0000347960      0.0000125700     0.0000243700    -0.0000000200
  C      3.5597057580     9.1701396240     5.0000335930     -0.0000352300    -0.0000009600     0.0000002900
  C      1.4341464240    10.3810976670     5.0000041710     -0.0000101100     0.0000546000    -0.0000000700
  C      2.8553615470    10.4088584630     5.0000028110     -0.0000006300    -0.0000189700     0.0000003300
  C      5.6949719240     2.9949928760     5.0000000000      0.0884558600     0.0128580800    -0.0000011700
  C      7.1187149050     2.9949928760     5.0000000000     -0.0880671400     0.0120939500    -0.0000006100
  C      4.9831004340     4.2279904660     5.0000000000      0.0157121500    -0.0186554400     0.0000028200
  C      7.8305863950     4.2279904660     5.0000000000     -0.0167840300    -0.0212899600     0.0000014700
  C      5.6941554470     5.4568973880     5.0000175460     -0.0000259700    -0.0000339800     0.0000000800
  C      7.1178989730     5.4534066650     5.0000138610     -0.0000032000     0.0000014100     0.0000000100
  C      4.9795911080     6.6956659330     5.0000310650      0.0000104000    -0.0000121800     0.0000000200
  C      7.8336975720     6.6883520950     5.0000262000      0.0000108700    -0.0000373100    -0.0000000500
  C      5.6931785460     7.9334278350     5.0000377000     -0.0000229900    -0.0000363300     0.0000002000
  C      7.1191217410     7.9214264940     5.0000373410      0.0000108800    -0.0000406100     0.0000005700
  C      4.9833933580     9.1702274790     5.0000366200      0.0000043700    -0.0000565900    -0.0000000300
  C      7.8299414680     9.1492038420     5.0000372610     -0.0000141900     0.0000234200     0.0000001500
  C      5.6893281870    10.4074951820     5.0000104300     -0.0000664700     0.0000155200    -0.0000001300
  C      7.1094398050    10.3800219180     5.0000078980      0.0000007000    -0.0000563600     0.0000000800
  H      0.9051131730     2.0292129280     5.0000000000      0.0057286500     0.0073868400    -0.0000002200
  H      3.3661157710     2.0292129280     5.0000000000     -0.0056772100     0.0074964800    -0.0000001600
  H      5.1763421170     2.0292129280     5.0000000000      0.0056751300     0.0074998700    -0.0000001800
  H      7.6373447050     2.0292129280     5.0000000000     -0.0057273800     0.0073778300    -0.0000003200
  C      7.1969082140    12.8860337400     4.9998700360      0.0000609400    -0.0000181800    -0.0000002000
  H      1.3950751720    15.4056668690     4.9998655990     -0.0000099600    -0.0000128900     0.0000001700
 Pt      0.1550671320    14.3403979110     4.9997732160      0.0000228900    -0.0000060000    -0.0000008500
  C      1.3734232960    12.8560399730     4.9998907850      0.0000036600     0.0000186400    -0.0000004100
  C      2.7732789620    12.8696684590     4.9999078960      0.0000055500     0.0000179400    -0.0000003900
  H      3.2752454330    13.8393720720     4.9998686310      0.0000066700     0.0000083500    -0.0000003500
  C      5.7912944500    12.8671032050     4.9999115180      0.0000200300     0.0000144000     0.0000002300
  C      7.8274511420    11.5958686810     4.9999497800     -0.0000003500    -0.0000098400    -0.0000002500
  C      3.5445594250    11.6746559130     4.9999594780     -0.0000382700     0.0000087500    -0.0000002400
  C      0.7015088420    11.5878196560     4.9999503910      0.0000048200     0.0000313300    -0.0000003000
  H      5.2594196000    13.8266889680     4.9998819200     -0.0000051500    -0.0000187600    -0.0000002300
  C      5.0074749370    11.6773135960     4.9999654020      0.0000159300    -0.0000052100     0.0000001100
