CRYSTAL
PRIMVEC
 8.54286592742127 0.00000000000000 0.00000000000000
 0.00000000000000 29.99999936305714 0.00000000000000
 0.00000000000000 0.00000000000000 15.49999653852868
PRIMCOORD
 47 1
  6     1.42374298100000     2.99499287600000     5.00000000000000     0.00000000000000     0.00000000000000     0.00000000000000
  6     2.84748596200000     2.99499287600000     5.00000000000000     0.00000000000000     0.00000000000000     0.00000000000000
  6     0.71187149100000     4.22799046600000     5.00000000000000     0.00000000000000     0.00000000000000     0.00000000000000
  6     3.55935745300000     4.22799046600000     5.00000000000000     0.00000000000000     0.00000000000000     0.00000000000000
  6     1.42331170300000     5.45466599200000     4.99404584300000    -0.00000536682179     0.00001852876327     0.00000880612308
  6     2.84660558400000     5.45462043700000     4.99358649900000    -0.00000394007868     0.00001765948932    -0.00000997775319
  6     0.70995901200000     6.69356269200000     4.98663051900000    -0.00000028345890     0.00002190192415     0.00004235820793
  6     3.56057155900000     6.69029708300000     4.98161944900000    -0.00000312749650     0.00002517115010     0.00002008778721
  6     1.42203226800000     7.92354529100000     4.97087961100000     0.00002675851993     0.00000616995534     0.00003582920465
  6     2.84774828400000     7.92259279200000     4.96002358500000     0.00001503277020     0.00002457588642     0.00001159346891
  6     0.70662525100000     9.16007890700000     4.95360119500000     0.00000704867792    -0.00000964705115     0.00002277119810
  6     3.56012283700000     9.15258191400000     4.94117372800000     0.00000556524302     0.00001692249619    -0.00002134445499
  6     1.41618877200000    10.38752119400000     4.90543782000000    -0.00000409125675    -0.00000808802721    -0.00000377945197
  6     2.84634559800000    10.38251692100000     4.92868696200000    -0.00001070529770     0.00000107714381     0.00001343595174
  6     5.69497192400000     2.99499287600000     5.00000000000000     0.00000000000000     0.00000000000000     0.00000000000000
  6     7.11871490500000     2.99499287600000     5.00000000000000     0.00000000000000     0.00000000000000     0.00000000000000
  6     4.98310043400000     4.22799046600000     5.00000000000000     0.00000000000000     0.00000000000000     0.00000000000000
  6     7.83058639500000     4.22799046600000     5.00000000000000     0.00000000000000     0.00000000000000     0.00000000000000
  6     5.69515995900000     5.45526347200000     4.99551264200000    -0.00001134780453     0.00001337925997    -0.00000866439364
  6     7.11834492900000     5.45572973500000     4.99643762500000    -0.00000746441764     0.00000879667445    -0.00001868938998
  6     4.98115275600000     6.69225222800000     4.98824691300000    -0.00000777622242     0.00002089092075     0.00000754945531
  6     7.83095062800000     6.69385702100000     4.98815500300000    -0.00000467707181     0.00000820141077     0.00000230546570
  6     5.69470588400000     7.92456953900000     4.98527802800000    -0.00000441251017     0.00000793684913    -0.00003275839993
  6     7.11637638200000     7.92493153500000     4.97929317600000    -0.00000842817789    -0.00000491328756     0.00001540126677
  6     4.98562846300000     9.16177768200000     4.96741095500000    -0.00000228656844    -0.00000108659244    -0.00004547625580
  6     7.82577990600000     9.16195204000000     4.96071312200000     0.00000688805121    -0.00001747051672     0.00004642111879
  6     5.68979870100000    10.40081318700000     4.94180444100000    -0.00000929745184    -0.00001913347559     0.00000993051004
  6     7.12044884500000    10.39983581400000     4.95523995500000    -0.00000958091074    -0.00002721205417    -0.00000979822923
  1     0.90511317300000     2.02921292800000     5.00000000000000     0.00000000000000     0.00000000000000     0.00000000000000
  1     3.36611577100000     2.02921292800000     5.00000000000000     0.00000000000000     0.00000000000000     0.00000000000000
  1     5.17634211700000     2.02921292800000     5.00000000000000     0.00000000000000     0.00000000000000     0.00000000000000
  1     7.63734470500000     2.02921292800000     5.00000000000000     0.00000000000000     0.00000000000000     0.00000000000000
  1     0.87018710000000    13.77357799900000     4.94347933000000    -0.00004500382430    -0.00000034959931     0.00001248164012
  6     2.86885015900000    12.91035688000000     5.19784782100000     0.00001924685915     0.00002090981801    -0.00000325977732
  1     7.40663579700000    12.59956145400000     5.10331647900000    -0.00000505501701    -0.00001110214015    -0.00000305190746
  1     3.60891890300000    14.99780912500000     5.21845684300000     0.00003363712251    -0.00002735378362     0.00001429577707
  6     0.71025004100000    11.62142039100000     4.84538437700000    -0.00000743607175    -0.00000471486633     0.00006349479306
  6     3.75833741400000    14.05307098200000     4.66990955800000     0.00005575636515    -0.00001011948264    -0.00001211314356
  1     3.56994316700000    14.22798559700000     3.58951448900000     0.00000147398627     0.00001127221549     0.00001018562305
  1     2.77277432700000    13.02720011000000     6.30162818000000     0.00001331311956    -0.00003007498903    -0.00000274955131
  6     7.87895995700000    11.59736688000000     4.93711551200000    -0.00001405011269    -0.00001691304756    -0.00001855710916
  6     4.94767844100000    11.61678341000000     4.87856755500000    -0.00002412235218    -0.00002653175281    -0.00002642781788
  6     3.55932166800000    11.59560427000000     4.98227783000000    -0.00002074919130     0.00000147398627     0.00002465147546
 78     5.69624497700000    13.45730648100000     4.72842066300000     0.00002388613644    -0.00001851931464     0.00001218873260
  1     1.55448715100000    13.01735926800000     3.49001825700000    -0.00003206864995     0.00002742937265     0.00000313694513
  6     1.46128506200000    12.90634585400000     4.59393083800000    -0.00000758724982     0.00002037124611     0.00001431467433
  1     6.22217715400000    14.83714419500000     5.44173268700000    -0.00002116493102     0.00000647231149     0.00003776617379
