CRYSTAL
PRIMVEC
 8.54286592742127 0.00000000000000 0.00000000000000
 0.00000000000000 29.99999936305714 0.00000000000000
 0.00000000000000 0.00000000000000 15.49999653852868
PRIMCOORD
 47 1
  6     1.42374298100000     2.99499287600000     5.00000000000000     0.00000000000000     0.00000000000000     0.00000000000000
  6     2.84748596200000     2.99499287600000     5.00000000000000     0.00000000000000     0.00000000000000     0.00000000000000
  6     0.71187149100000     4.22799046600000     5.00000000000000     0.00000000000000     0.00000000000000     0.00000000000000
  6     3.55935745300000     4.22799046600000     5.00000000000000     0.00000000000000     0.00000000000000     0.00000000000000
  6     1.42319693200000     5.45411442900000     5.00001181600000    -0.00000450699647    -0.00002860100276     0.00000012283219
  6     2.84791476000000     5.45411514300000     5.00001177400000    -0.00000353378759    -0.00003585755054     0.00000012283219
  6     0.70801632100000     6.69368921100000     5.00001885800000     0.00001744217083    -0.00002286568440    -0.00000039684246
  6     3.56300700100000     6.69369852200000     5.00001865900000     0.00000022676712     0.00000188972598    -0.00000076533902
  6     1.41686196200000     7.93360360800000     4.99999727700000    -0.00000763449297    -0.00001018562305    -0.00000066140409
  6     2.85415677800000     7.93362132200000     4.99999632500000    -0.00000957146211    -0.00005769333429    -0.00000067085272
  6     0.70998113800000     9.15390254200000     4.99996384900000    -0.00001415404762    -0.00003765279023    -0.00000043463698
  6     3.56103185700000     9.15388985800000     4.99996042100000     0.00004145113945     0.00000867384227    -0.00000018897260
  6     1.42646504200000    10.40403639800000     4.99990685400000    -0.00000764394160     0.00001540126677    -0.00000033070205
  6     2.84455913800000    10.40404189300000     4.99990481100000     0.00000213539036    -0.00001067695181    -0.00000021731849
  6     5.69497192400000     2.99499287600000     5.00000000000000     0.00000000000000     0.00000000000000     0.00000000000000
  6     7.11871490500000     2.99499287600000     5.00000000000000     0.00000000000000     0.00000000000000     0.00000000000000
  6     4.98310043400000     4.22799046600000     5.00000000000000     0.00000000000000     0.00000000000000     0.00000000000000
  6     7.83058639500000     4.22799046600000     5.00000000000000     0.00000000000000     0.00000000000000     0.00000000000000
  6     5.69503547300000     5.45189795300000     5.00001907900000    -0.00001825475300     0.00005818466304     0.00000016062671
  6     7.11876466200000     5.45190297900000     5.00001901600000     0.00002447195149     0.00004203695451     0.00000031180479
  6     4.97863948800000     6.68943999900000     5.00002616200000    -0.00002658844459    -0.00003232376295    -0.00000034015068
  6     7.83524819900000     6.68941638700000     5.00002676200000     0.00000509281153     0.00000363772252    -0.00000037794520
  6     5.69408315400000     7.92110211400000     5.00001349100000     0.00001966259886     0.00006226647117    -0.00000043463698
  6     7.11981004900000     7.92110936600000     5.00001417400000    -0.00000854156145     0.00001122497234    -0.00000052912328
  6     4.98608116900000     9.15081992800000     4.99996603100000    -0.00000643451697    -0.00005190132415    -0.00000014172945
  6     7.82781492500000     9.15081195500000     4.99996925300000    -0.00001409735584    -0.00001082812989    -0.00000055746917
  6     5.71681993600000    10.37017547600000     4.99989181100000     0.00003299461568     0.00000589594507    -0.00000025511301
  6     7.09706486500000    10.37018143400000     4.99989388100000    -0.00002159011937    -0.00001641227017    -0.00000028345890
  1     0.90511317300000     2.02921292800000     5.00000000000000     0.00000000000000     0.00000000000000     0.00000000000000
  1     3.36611577100000     2.02921292800000     5.00000000000000     0.00000000000000     0.00000000000000     0.00000000000000
  1     5.17634211700000     2.02921292800000     5.00000000000000     0.00000000000000     0.00000000000000     0.00000000000000
  1     7.63734470500000     2.02921292800000     5.00000000000000     0.00000000000000     0.00000000000000     0.00000000000000
 78     6.40694322200000    13.72207887300000     4.99891766700000     0.00000157792120    -0.00000304245883     0.00000085982532
  6     7.81055126400000    11.67787903200000     4.99974847700000    -0.00000954311622    -0.00000757780120    -0.00000062360957
  1     7.50500920100000    12.27882267300000     5.92646523100000     0.00005184463237    -0.00001688470167    -0.00000508336290
  6     1.44219133100000    12.84199844700000     4.99973709100000    -0.00001313359559     0.00004810297492    -0.00000021731849
  1     0.88106455100000    13.78450058400000     4.99965082500000    -0.00001659179414     0.00001648785921     0.00000039684246
  6     3.52107177600000    11.63948975600000     4.99981088000000     0.00000616995534     0.00001515560239    -0.00000057636643
  1     5.30887957700000    12.27882286600000     5.92646387900000    -0.00005236430701    -0.00001831144478    -0.00000702033203
  1     7.35130153500000    14.94563058100000     4.99844959700000    -0.00001363437297     0.00000018897260     0.00000080313354
  6     0.74995159800000    11.63949549200000     4.99981422400000     0.00000057636643     0.00000133225682    -0.00000048188013
  1     3.38996382500000    13.78450002200000     4.99964957900000     0.00001725319823     0.00001566582841     0.00000025511301
  6     5.00333864800000    11.67787813300000     4.99974455000000     0.00000730379093    -0.00000926910595    -0.00000062360957
  6     2.82883798600000    12.84199730700000     4.99973533800000     0.00000991161279     0.00004707307426    -0.00000017007534
  1     5.30876599700000    12.27849099600000     4.07271696500000    -0.00005267611180    -0.00001821695848     0.00000576366425
  1     7.50512312800000    12.27849291100000     4.07272354500000     0.00005229816660    -0.00001693194481     0.00000412905127
  1     5.46258799300000    14.94563041500000     4.99844997400000     0.00001262336957     0.00000129446230     0.00000077478765
