CRYSTAL
PRIMVEC
     8.5428654021    0.0000000000    0.0000000000
     0.0000000000   29.9999975181    0.0000000000
     0.0000000000    0.0000000000   15.4999955853
PRIMCOORD
 44 1
         0.0000000000     0.0000000000     0.0000000000      0.0840173400     0.0103708800     0.0000543900
         0.0000000000     0.0000000000     0.0000000000     -0.0840012800     0.0106647700     0.0000913000
         0.0000000000     0.0000000000     0.0000000000      0.0204230700    -0.0253864800    -0.0005413900
         0.0000000000     0.0000000000     0.0000000000     -0.0209555500    -0.0255188200    -0.0003052200
         0.0000000000     0.0000000000     0.0000000000      0.0001237700    -0.0002116300     0.0000026600
         0.0000000000     0.0000000000     0.0000000000     -0.0000764900    -0.0001271900     0.0000326300
         0.0000000000     0.0000000000     0.0000000000     -0.0001685600     0.0000856900     0.0000382600
         0.0000000000     0.0000000000     0.0000000000      0.0002282800     0.0000199900    -0.0000606600
         0.0000000000     0.0000000000     0.0000000000     -0.0000592000     0.0000550000    -0.0002188000
         0.0000000000     0.0000000000     0.0000000000      0.0001730400     0.0001942200     0.0000250000
         0.0000000000     0.0000000000     0.0000000000      0.0004821300    -0.0000723200    -0.0005108800
         0.0000000000     0.0000000000     0.0000000000     -0.0001887200    -0.0002220400     0.0000866100
         0.0000000000     0.0000000000     0.0000000000      0.0015722800    -0.0018520600    -0.0011392000
         0.0000000000     0.0000000000     0.0000000000     -0.0004349300    -0.0005004000    -0.0001490900
         0.0000000000     0.0000000000     0.0000000000      0.0854020900     0.0095875700    -0.0001634900
         0.0000000000     0.0000000000     0.0000000000     -0.0853423600     0.0100978300     0.0000503000
         0.0000000000     0.0000000000     0.0000000000      0.0213556800    -0.0221672000     0.0002285300
         0.0000000000     0.0000000000     0.0000000000     -0.0206069300    -0.0223980200     0.0005783800
         0.0000000000     0.0000000000     0.0000000000      0.0000845900    -0.0001732300     0.0000498600
         0.0000000000     0.0000000000     0.0000000000     -0.0000874900    -0.0001362300    -0.0000451900
         0.0000000000     0.0000000000     0.0000000000     -0.0001377900    -0.0000005000     0.0000075300
         0.0000000000     0.0000000000     0.0000000000      0.0001676600    -0.0000926000     0.0000076100
         0.0000000000     0.0000000000     0.0000000000     -0.0002171000     0.0001061400     0.0000363700
         0.0000000000     0.0000000000     0.0000000000      0.0001738300     0.0001979300    -0.0000443600
         0.0000000000     0.0000000000     0.0000000000      0.0001632700    -0.0003062900    -0.0003441000
         0.0000000000     0.0000000000     0.0000000000     -0.0003207200    -0.0004611500    -0.0001475800
         0.0000000000     0.0000000000     0.0000000000      0.0003012800     0.0001777600     0.0000399600
         0.0000000000     0.0000000000     0.0000000000     -0.0006027600     0.0002265000    -0.0005952600
         0.0000000000     0.0000000000     0.0000000000      0.0082778400     0.0111271100     0.0000412700
         0.0000000000     0.0000000000     0.0000000000     -0.0082795800     0.0111184900     0.0000212200
         0.0000000000     0.0000000000     0.0000000000      0.0083091800     0.0111593300    -0.0000458300
         0.0000000000     0.0000000000     0.0000000000     -0.0082759900     0.0111336500    -0.0000306800
         0.0000000000     0.0000000000     0.0000000000      0.0011611100     0.0050949200    -0.0020392000
         0.0000000000     0.0000000000     0.0000000000     -0.0021800700     0.0011882900    -0.0018213400
         0.0000000000     0.0000000000     0.0000000000      0.0012715800     0.0016454100     0.0008459400
         0.0000000000     0.0000000000     0.0000000000      0.0056604700     0.0043854600     0.0012103000
         0.0000000000     0.0000000000     0.0000000000     -0.0018467100     0.0052544600    -0.0010976000
         0.0000000000     0.0000000000     0.0000000000     -0.0031989400    -0.0037987700     0.0004970200
         0.0000000000     0.0000000000     0.0000000000     -0.0028492300    -0.0037470200    -0.0003012200
         0.0000000000     0.0000000000     0.0000000000     -0.0010311100     0.0072185500     0.0084268100
         0.0000000000     0.0000000000     0.0000000000     -0.0029787100    -0.0039952000     0.0036338100
         0.0000000000     0.0000000000     0.0000000000     -0.0001841100     0.0010434600    -0.0001681900
         0.0000000000     0.0000000000     0.0000000000      0.0030825100    -0.0039016500    -0.0001048000
         0.0000000000     0.0000000000     0.0000000000      0.0015932800     0.0029153700    -0.0061316800
