CRYSTAL
PRIMVEC
     8.5428654021    0.0000000000    0.0000000000
     0.0000000000   29.9999975181    0.0000000000
     0.0000000000    0.0000000000   15.4999955853
PRIMCOORD
 45 1
         0.0000000000     0.0000000000     0.0000000000      0.0842463100     0.0107558800    -0.0000969000
         0.0000000000     0.0000000000     0.0000000000     -0.0843086600     0.0110169700    -0.0002452500
         0.0000000000     0.0000000000     0.0000000000      0.0190317100    -0.0214702200    -0.0012328300
         0.0000000000     0.0000000000     0.0000000000     -0.0209046600    -0.0205032200    -0.0003714600
         0.0000000000     0.0000000000     0.0000000000      0.0015776500     0.0016027500     0.0004328600
         0.0000000000     0.0000000000     0.0000000000     -0.0005247700    -0.0008379200     0.0005774800
         0.0000000000     0.0000000000     0.0000000000      0.0015120000    -0.0026245800     0.0007976200
         0.0000000000     0.0000000000     0.0000000000     -0.0015501600     0.0005784700     0.0008189800
         0.0000000000     0.0000000000     0.0000000000     -0.0006380800     0.0021433400    -0.0006359600
         0.0000000000     0.0000000000     0.0000000000     -0.0007243800    -0.0048333300    -0.0006628200
         0.0000000000     0.0000000000     0.0000000000     -0.0040713400    -0.0040597300     0.0017247600
         0.0000000000     0.0000000000     0.0000000000     -0.0015836500     0.0051305700    -0.0023310000
         0.0000000000     0.0000000000     0.0000000000     -0.0059170000     0.0062129600     0.0078294900
         0.0000000000     0.0000000000     0.0000000000      0.0086499500    -0.0035990700     0.0013698500
         0.0000000000     0.0000000000     0.0000000000      0.0845523400     0.0106041100    -0.0004177400
         0.0000000000     0.0000000000     0.0000000000     -0.0848397600     0.0111367700     0.0000592000
         0.0000000000     0.0000000000     0.0000000000      0.0196254600    -0.0200461000     0.0000893500
         0.0000000000     0.0000000000     0.0000000000     -0.0202382100    -0.0185226700     0.0000020300
         0.0000000000     0.0000000000     0.0000000000      0.0000127500     0.0022167400    -0.0005104000
         0.0000000000     0.0000000000     0.0000000000      0.0017720400     0.0007127000    -0.0001859900
         0.0000000000     0.0000000000     0.0000000000      0.0015496200    -0.0009931000     0.0004254500
         0.0000000000     0.0000000000     0.0000000000     -0.0014987800     0.0014174000     0.0011741800
         0.0000000000     0.0000000000     0.0000000000      0.0014377100     0.0010448200     0.0013818700
         0.0000000000     0.0000000000     0.0000000000     -0.0006543500    -0.0035730500     0.0015360400
         0.0000000000     0.0000000000     0.0000000000      0.0017619000    -0.0005284000    -0.0008501200
         0.0000000000     0.0000000000     0.0000000000      0.0031224800     0.0023508600    -0.0004063800
         0.0000000000     0.0000000000     0.0000000000      0.0003096800     0.0015796300    -0.0006101400
         0.0000000000     0.0000000000     0.0000000000     -0.0018309700    -0.0001419400    -0.0004701300
         0.0000000000     0.0000000000     0.0000000000      0.0084336900     0.0112718300     0.0000692900
         0.0000000000     0.0000000000     0.0000000000     -0.0084380600     0.0112134800    -0.0000130500
         0.0000000000     0.0000000000     0.0000000000      0.0084177300     0.0113390700    -0.0000726700
         0.0000000000     0.0000000000     0.0000000000     -0.0083898500     0.0112402100     0.0000058700
         0.0000000000     0.0000000000     0.0000000000     -0.0079993300     0.0037968900    -0.0038078700
         0.0000000000     0.0000000000     0.0000000000     -0.0033341500    -0.0047486600    -0.0011880100
         0.0000000000     0.0000000000     0.0000000000      0.0040640300     0.0039577000     0.0039747200
         0.0000000000     0.0000000000     0.0000000000     -0.0004154700     0.0009356100     0.0011219900
         0.0000000000     0.0000000000     0.0000000000      0.0057403400     0.0059985900    -0.0043288200
         0.0000000000     0.0000000000     0.0000000000     -0.0025101300    -0.0061677300    -0.0000018200
         0.0000000000     0.0000000000     0.0000000000      0.0013623300    -0.0019356100    -0.0027144700
         0.0000000000     0.0000000000     0.0000000000      0.0197421600    -0.0039972000     0.0322271500
         0.0000000000     0.0000000000     0.0000000000     -0.0035302300    -0.0063996600     0.0086940400
         0.0000000000     0.0000000000     0.0000000000     -0.0024423000    -0.0055352400    -0.0028230600
         0.0000000000     0.0000000000     0.0000000000      0.0006411900    -0.0023542600    -0.0020551300
         0.0000000000     0.0000000000     0.0000000000     -0.0086372500     0.0100047700    -0.0268807800
         0.0000000000     0.0000000000     0.0000000000     -0.0025815200    -0.0053904400    -0.0113994200
