CRYSTAL
PRIMVEC
     8.5428654021    0.0000000000    0.0000000000
     0.0000000000   29.9999975181    0.0000000000
     0.0000000000    0.0000000000   15.4999955853
PRIMCOORD
 46 1
         0.0000000000     0.0000000000     0.0000000000      0.0832701600     0.0109717100     0.0001118000
         0.0000000000     0.0000000000     0.0000000000     -0.0828424100     0.0108267600     0.0002925600
         0.0000000000     0.0000000000     0.0000000000      0.0199186400    -0.0254207000    -0.0003518000
         0.0000000000     0.0000000000     0.0000000000     -0.0217309500    -0.0268520500    -0.0003159000
         0.0000000000     0.0000000000     0.0000000000      0.0001457000    -0.0001655100    -0.0000614300
         0.0000000000     0.0000000000     0.0000000000     -0.0001467200    -0.0002986400     0.0000112000
         0.0000000000     0.0000000000     0.0000000000     -0.0003643400     0.0000005500    -0.0000024000
         0.0000000000     0.0000000000     0.0000000000      0.0003353800     0.0000625400    -0.0000290600
         0.0000000000     0.0000000000     0.0000000000     -0.0002051000     0.0004337000    -0.0002177500
         0.0000000000     0.0000000000     0.0000000000      0.0002024200     0.0001782800    -0.0000038800
         0.0000000000     0.0000000000     0.0000000000     -0.0000512100    -0.0006637500    -0.0003026800
         0.0000000000     0.0000000000     0.0000000000      0.0002850000    -0.0002723100     0.0000561500
         0.0000000000     0.0000000000     0.0000000000      0.0015651000    -0.0011487500    -0.0013556800
         0.0000000000     0.0000000000     0.0000000000     -0.0002778500    -0.0001295400    -0.0004475300
         0.0000000000     0.0000000000     0.0000000000      0.0845261500     0.0105178800     0.0001745500
         0.0000000000     0.0000000000     0.0000000000     -0.0839150100     0.0106934900     0.0001876500
         0.0000000000     0.0000000000     0.0000000000      0.0213844700    -0.0221787700    -0.0004633200
         0.0000000000     0.0000000000     0.0000000000     -0.0205525200    -0.0233613500     0.0001168800
         0.0000000000     0.0000000000     0.0000000000      0.0002204500    -0.0001733600     0.0000165400
         0.0000000000     0.0000000000     0.0000000000     -0.0001772100    -0.0004276900     0.0000267900
         0.0000000000     0.0000000000     0.0000000000     -0.0003098100    -0.0000245100     0.0000167200
         0.0000000000     0.0000000000     0.0000000000      0.0002230800     0.0001721900     0.0000211000
         0.0000000000     0.0000000000     0.0000000000     -0.0002403600     0.0002922900     0.0000897000
         0.0000000000     0.0000000000     0.0000000000      0.0001435100    -0.0000237100    -0.0000510100
         0.0000000000     0.0000000000     0.0000000000     -0.0000710500    -0.0005541800    -0.0002444800
         0.0000000000     0.0000000000     0.0000000000      0.0000972200    -0.0004520100    -0.0001086500
         0.0000000000     0.0000000000     0.0000000000      0.0002397600     0.0003898600    -0.0000991800
         0.0000000000     0.0000000000     0.0000000000     -0.0006894200     0.0001702600    -0.0004876100
         0.0000000000     0.0000000000     0.0000000000      0.0083682300     0.0111309900     0.0000433500
         0.0000000000     0.0000000000     0.0000000000     -0.0084271100     0.0111431900     0.0000510700
         0.0000000000     0.0000000000     0.0000000000      0.0083708900     0.0111623800     0.0000476500
         0.0000000000     0.0000000000     0.0000000000     -0.0083617700     0.0112368100     0.0000146700
         0.0000000000     0.0000000000     0.0000000000      0.0012768400     0.0054213500    -0.0019396800
         0.0000000000     0.0000000000     0.0000000000     -0.0019153800     0.0011011100    -0.0020002200
         0.0000000000     0.0000000000     0.0000000000      0.0008759800     0.0004655700     0.0006830800
         0.0000000000     0.0000000000     0.0000000000      0.0052658600     0.0053936900     0.0020729100
         0.0000000000     0.0000000000     0.0000000000     -0.0017827500     0.0052756200    -0.0011905700
         0.0000000000     0.0000000000     0.0000000000     -0.0033998900    -0.0039627700     0.0001660300
         0.0000000000     0.0000000000     0.0000000000     -0.0030510300    -0.0037998400    -0.0003980900
         0.0000000000     0.0000000000     0.0000000000      0.0054941900     0.0054071200    -0.0017542300
         0.0000000000     0.0000000000     0.0000000000     -0.0029081100    -0.0035311700     0.0046708300
         0.0000000000     0.0000000000     0.0000000000      0.0000534400     0.0010579100    -0.0005613900
         0.0000000000     0.0000000000     0.0000000000      0.0030882100    -0.0039195900     0.0000064800
         0.0000000000     0.0000000000     0.0000000000      0.0007628300     0.0012398200    -0.0073487800
         0.0000000000     0.0000000000     0.0000000000     -0.0044853400    -0.0036619100     0.0161377700
         0.0000000000     0.0000000000     0.0000000000     -0.0002081600     0.0062770600    -0.0052801600
