CRYSTAL
PRIMVEC
     8.5428654021    0.0000000000    0.0000000000
     0.0000000000   29.9999975181    0.0000000000
     0.0000000000    0.0000000000   15.4999955853
PRIMCOORD
 47 1
         0.0000000000     0.0000000000     0.0000000000      0.0831579700     0.0110630700     0.0001593100
         0.0000000000     0.0000000000     0.0000000000     -0.0828607000     0.0111080100     0.0003558700
         0.0000000000     0.0000000000     0.0000000000      0.0206048000    -0.0250520400    -0.0001269600
         0.0000000000     0.0000000000     0.0000000000     -0.0219428000    -0.0261411800    -0.0001368900
         0.0000000000     0.0000000000     0.0000000000      0.0002272900    -0.0002527400    -0.0001729000
         0.0000000000     0.0000000000     0.0000000000     -0.0000759300    -0.0002739900    -0.0002022600
         0.0000000000     0.0000000000     0.0000000000     -0.0001893900    -0.0001036600    -0.0001021300
         0.0000000000     0.0000000000     0.0000000000      0.0003359200     0.0000452600    -0.0001557100
         0.0000000000     0.0000000000     0.0000000000     -0.0001093800     0.0001625800    -0.0002357200
         0.0000000000     0.0000000000     0.0000000000      0.0002070900     0.0000120900    -0.0001472000
         0.0000000000     0.0000000000     0.0000000000      0.0001003000    -0.0006106100    -0.0003447000
         0.0000000000     0.0000000000     0.0000000000     -0.0000283400    -0.0002173100    -0.0000130100
         0.0000000000     0.0000000000     0.0000000000      0.0015958200    -0.0016597500    -0.0013571100
         0.0000000000     0.0000000000     0.0000000000     -0.0006618600    -0.0006496400    -0.0004885000
         0.0000000000     0.0000000000     0.0000000000      0.0845560000     0.0103306800     0.0002453100
         0.0000000000     0.0000000000     0.0000000000     -0.0841636300     0.0107118400     0.0001538900
         0.0000000000     0.0000000000     0.0000000000      0.0215384900    -0.0224818500    -0.0002199300
         0.0000000000     0.0000000000     0.0000000000     -0.0208280800    -0.0231883700     0.0004508800
         0.0000000000     0.0000000000     0.0000000000      0.0002439500    -0.0001214900    -0.0000136100
         0.0000000000     0.0000000000     0.0000000000     -0.0001058100    -0.0002890800     0.0000015800
         0.0000000000     0.0000000000     0.0000000000     -0.0001856800    -0.0000516600    -0.0000838700
         0.0000000000     0.0000000000     0.0000000000      0.0002583500     0.0000664800    -0.0000649200
         0.0000000000     0.0000000000     0.0000000000     -0.0002855000     0.0003091100     0.0001213600
         0.0000000000     0.0000000000     0.0000000000      0.0000714900     0.0000026400    -0.0001249300
         0.0000000000     0.0000000000     0.0000000000     -0.0001150000    -0.0004688600    -0.0001035200
         0.0000000000     0.0000000000     0.0000000000     -0.0000464700    -0.0006078800    -0.0004214500
         0.0000000000     0.0000000000     0.0000000000      0.0002787700     0.0003122000    -0.0002513000
         0.0000000000     0.0000000000     0.0000000000     -0.0006636700     0.0000288300    -0.0012401600
         0.0000000000     0.0000000000     0.0000000000      0.0083200200     0.0111353000     0.0000336200
         0.0000000000     0.0000000000     0.0000000000     -0.0083571500     0.0111363400     0.0000450800
         0.0000000000     0.0000000000     0.0000000000      0.0083373100     0.0111567000     0.0000455900
         0.0000000000     0.0000000000     0.0000000000     -0.0083161900     0.0111948800    -0.0000114600
         0.0000000000     0.0000000000     0.0000000000      0.0015961900     0.0052407300    -0.0027962800
         0.0000000000     0.0000000000     0.0000000000     -0.0018905800     0.0009698300    -0.0026958700
         0.0000000000     0.0000000000     0.0000000000      0.0005923300     0.0012454000     0.0007750000
         0.0000000000     0.0000000000     0.0000000000      0.0069913700     0.0044530900     0.0005270000
         0.0000000000     0.0000000000     0.0000000000     -0.0020819300     0.0049247500    -0.0019934100
         0.0000000000     0.0000000000     0.0000000000     -0.0032276100    -0.0040089000     0.0006763000
         0.0000000000     0.0000000000     0.0000000000     -0.0033122400    -0.0036112800    -0.0002132400
         0.0000000000     0.0000000000     0.0000000000      0.0055053200     0.0068031300     0.0020615900
         0.0000000000     0.0000000000     0.0000000000     -0.0031190200    -0.0038681800     0.0036691900
         0.0000000000     0.0000000000     0.0000000000      0.0002772600     0.0011775500    -0.0009460500
         0.0000000000     0.0000000000     0.0000000000      0.0030113000    -0.0039955700     0.0003657300
         0.0000000000     0.0000000000     0.0000000000      0.0021846200     0.0028355600    -0.0062083400
         0.0000000000     0.0000000000     0.0000000000     -0.0057686900    -0.0008436300     0.0085110200
         0.0000000000     0.0000000000     0.0000000000     -0.0070106900    -0.0005727900     0.0068843100
         0.0000000000     0.0000000000     0.0000000000      0.0053543800     0.0026443700    -0.0042111800
