CRYSTAL
PRIMVEC
 8.54286592742127 0.00000000000000 0.00000000000000
 0.00000000000000 29.99999936305714 0.00000000000000
 0.00000000000000 0.00000000000000 15.49999653852868
PRIMCOORD
 49 1
  6     1.42374298100000     2.99499287600000     5.00000000000000     0.00000000000000     0.00000000000000     0.00000000000000
  6     2.84748596200000     2.99499287600000     5.00000000000000     0.00000000000000     0.00000000000000     0.00000000000000
  6     0.71187149100000     4.22799046600000     5.00000000000000     0.00000000000000     0.00000000000000     0.00000000000000
  6     3.55935745300000     4.22799046600000     5.00000000000000     0.00000000000000     0.00000000000000     0.00000000000000
  6     1.42435907200000     5.45657743200000     4.99809455400000    -0.00000054802054    -0.00000427078072    -0.00000704867792
  6     2.84676946800000     5.45834577600000     4.99883728400000    -0.00000149288353    -0.00000265506501    -0.00000982657512
  6     0.71291817500000     6.69648930500000     4.99562935200000    -0.00000107714381    -0.00000238105474    -0.00000946752718
  6     3.55837224300000     6.70032397500000     4.99887454000000    -0.00000450699647     0.00000279679446     0.00000291017802
  6     1.42388083700000     7.92879618200000     4.98661654800000     0.00000059526368    -0.00000491328756     0.00000188972598
  6     2.84801567600000     7.93652568200000     4.99071432500000    -0.00000239995200    -0.00000167240750     0.00001894450299
  6     0.71615654400000     9.16446673500000     4.98746725100000     0.00000324088006    -0.00000041573972     0.00000710536970
  6     3.55276678000000     9.18038029600000     4.98418574200000    -0.00000292907527     0.00000002834589     0.00001218873260
  6     1.40539221600000    10.42019219600000     4.97293209600000     0.00000143619175    -0.00000196531502    -0.00000615105808
  6     2.85125914200000    10.44289200700000     4.94204237600000    -0.00000006614041     0.00000234326022    -0.00000208814721
  6     5.69497192400000     2.99499287600000     5.00000000000000     0.00000000000000     0.00000000000000     0.00000000000000
  6     7.11871490500000     2.99499287600000     5.00000000000000     0.00000000000000     0.00000000000000     0.00000000000000
  6     4.98310043400000     4.22799046600000     5.00000000000000     0.00000000000000     0.00000000000000     0.00000000000000
  6     7.83058639500000     4.22799046600000     5.00000000000000     0.00000000000000     0.00000000000000     0.00000000000000
  6     5.69541158400000     5.45146596000000     5.00159235500000    -0.00000088817121     0.00000248498967     0.00001216038671
  6     7.11862608400000     5.45337044000000     5.00119738700000    -0.00000489439030     0.00000219208214     0.00001829254752
  6     4.98092035100000     6.68564826100000     5.00256480300000    -0.00000247554104     0.00000324088006    -0.00000571642110
  6     7.83276059000000     6.69040833700000     5.00178474200000    -0.00000185193146     0.00000038739383    -0.00000075589039
  6     5.69321049300000     7.90815397100000     5.00821912700000     0.00000477155811     0.00000262671912    -0.00002018227351
  6     7.11987827300000     7.91593225400000     5.00977714600000     0.00000481880126     0.00000532902727    -0.00001274620176
  6     4.97594960900000     9.13621853400000     5.00548762700000     0.00000109604107     0.00000309915061    -0.00000483769852
  6     7.83867201600000     9.14968610700000     5.01156769300000     0.00000342040403     0.00000729434230     0.00000694474299
  6     5.70544659100000    10.34113537000000     5.02525027700000     0.00000110548970     0.00000262671912     0.00000411015401
  6     7.11984287200000    10.36855131100000     5.02863484200000     0.00000224877392     0.00000514950331     0.00000889116075
  1     0.90511317300000     2.02921292800000     5.00000000000000     0.00000000000000     0.00000000000000     0.00000000000000
  1     3.36611577100000     2.02921292800000     5.00000000000000     0.00000000000000     0.00000000000000     0.00000000000000
  1     5.17634211700000     2.02921292800000     5.00000000000000     0.00000000000000     0.00000000000000     0.00000000000000
  1     7.63734470500000     2.02921292800000     5.00000000000000     0.00000000000000     0.00000000000000     0.00000000000000
  6     7.80615615200000    11.61344852700000     5.03337493800000    -0.00000631168479    -0.00000018897260    -0.00000022676712
  6     4.61620474800000    13.83174999500000     4.49792976400000     0.00000695419162     0.00000186138009    -0.00000241884926
  6     5.00134034300000    11.54819906500000     4.98948233000000     0.00000017007534     0.00000260782186    -0.00000220153077
  6     3.61591160900000    11.63437459900000     4.88920911200000     0.00000003779452     0.00000523454098    -0.00000693529436
  1     1.14639805700000    12.57026637500000     5.05905191100000    -0.00000426133209    -0.00000138894860     0.00000710536970
  6     5.65286052900000    12.83668595000000     4.97804762000000    -0.00000154012668    -0.00000072754450    -0.00000196531502
  1     2.54690550400000    13.31178199400000     3.94337602500000    -0.00000411015401    -0.00000651010601     0.00000985492101
 78    -2.22463606000000    13.18629787400000     7.01859334200000     0.00001173519836     0.00000753055805    -0.00000058581505
  1     2.81004852500000    13.49083163500000     5.69846797800000     0.00000325032869    -0.00000375110608    -0.00001021396894
  1     7.62182772100000    13.78580486300000     4.74729555000000    -0.00000058581505    -0.00000119997600    -0.00000261727049
  6     0.65260482000000    11.60397401800000     5.01580458800000    -0.00000471486633    -0.00000243774652    -0.00001728154412
  1     4.67856266000000    14.81942146700000     4.98266808400000     0.00000454479099    -0.00001538236951    -0.00000664238683
  1    -2.37128264700000    12.93546693200000     8.62802275700000    -0.00000042518835     0.00000041573972     0.00000239050337
  1     4.75554876300000    13.98356363800000     3.40738540400000    -0.00000850376693    -0.00000210704447     0.00002095706116
  1    -2.40819301200000    13.93755256100000     8.45648144300000     0.00000081258217    -0.00000762504434    -0.00000608491767
  6     7.06762687600000    12.87765772900000     5.02401390800000    -0.00000167240750    -0.00000474321222     0.00000636837657
  6     3.26385904300000    13.11241223900000     4.75947649700000    -0.00000003779452     0.00000179523968    -0.00000617940397
