CRYSTAL
PRIMVEC
     8.5428654021    0.0000000000    0.0000000000
     0.0000000000   29.9999975181    0.0000000000
     0.0000000000    0.0000000000   15.4999955853
PRIMCOORD
 42 1
         0.0000000000     0.0000000000     0.0000000000      0.0874555900     0.0083943800    -0.0000901200
         0.0000000000     0.0000000000     0.0000000000     -0.0874575000     0.0090037900     0.0001835700
         0.0000000000     0.0000000000     0.0000000000      0.0134958000    -0.0215429300     0.0002687300
         0.0000000000     0.0000000000     0.0000000000     -0.0142230400    -0.0219852900    -0.0002893600
         0.0000000000     0.0000000000     0.0000000000      0.0001228400    -0.0001263700    -0.0000222400
         0.0000000000     0.0000000000     0.0000000000     -0.0001732300    -0.0001108400     0.0000373100
         0.0000000000     0.0000000000     0.0000000000     -0.0000868700    -0.0000361600     0.0000596600
         0.0000000000     0.0000000000     0.0000000000      0.0000888100    -0.0000703700    -0.0000424400
         0.0000000000     0.0000000000     0.0000000000      0.0000787600    -0.0000659800    -0.0000318300
         0.0000000000     0.0000000000     0.0000000000     -0.0001323300    -0.0000094800     0.0001061300
         0.0000000000     0.0000000000     0.0000000000      0.0002345600     0.0002999900     0.0001507200
         0.0000000000     0.0000000000     0.0000000000      0.0001262600     0.0001147200    -0.0000417500
         0.0000000000     0.0000000000     0.0000000000     -0.0009160900    -0.0011037200    -0.0002325000
         0.0000000000     0.0000000000     0.0000000000      0.0003389900    -0.0002925300     0.0000039500
         0.0000000000     0.0000000000     0.0000000000      0.0878802200     0.0079269100     0.0001024300
         0.0000000000     0.0000000000     0.0000000000     -0.0878382700     0.0084314000     0.0000552100
         0.0000000000     0.0000000000     0.0000000000      0.0136584700    -0.0227733600    -0.0003331800
         0.0000000000     0.0000000000     0.0000000000     -0.0131414200    -0.0224284900     0.0000861700
         0.0000000000     0.0000000000     0.0000000000      0.0001642000    -0.0001090000    -0.0000011800
         0.0000000000     0.0000000000     0.0000000000     -0.0001605600    -0.0000454000    -0.0000042700
         0.0000000000     0.0000000000     0.0000000000     -0.0001065700    -0.0000157300    -0.0000942400
         0.0000000000     0.0000000000     0.0000000000      0.0000939100    -0.0001040400    -0.0000119400
         0.0000000000     0.0000000000     0.0000000000      0.0001629600     0.0000326600     0.0000191000
         0.0000000000     0.0000000000     0.0000000000     -0.0001542800     0.0001390400    -0.0000810400
         0.0000000000     0.0000000000     0.0000000000     -0.0001194600     0.0001999200    -0.0000319200
         0.0000000000     0.0000000000     0.0000000000      0.0000685700     0.0000936700     0.0000641600
         0.0000000000     0.0000000000     0.0000000000      0.0002136400     0.0007231300     0.0000651500
         0.0000000000     0.0000000000     0.0000000000     -0.0003097400     0.0010563200    -0.0003229600
         0.0000000000     0.0000000000     0.0000000000      0.0082636800     0.0111916400    -0.0000456300
         0.0000000000     0.0000000000     0.0000000000     -0.0082706800     0.0111332800     0.0000477300
         0.0000000000     0.0000000000     0.0000000000      0.0083193100     0.0111392100     0.0000293900
         0.0000000000     0.0000000000     0.0000000000     -0.0082737700     0.0111159200     0.0000039900
         0.0000000000     0.0000000000     0.0000000000      0.0025557900    -0.0003620500     0.0015163800
         0.0000000000     0.0000000000     0.0000000000     -0.0029444100    -0.0022950500    -0.0003654900
         0.0000000000     0.0000000000     0.0000000000      0.0016291600     0.0043388200     0.0013092000
         0.0000000000     0.0000000000     0.0000000000      0.0037911900     0.0013444400    -0.0036106300
         0.0000000000     0.0000000000     0.0000000000      0.0024929000     0.0065344500     0.0070053100
         0.0000000000     0.0000000000     0.0000000000     -0.0030711100    -0.0048204300    -0.0005788700
         0.0000000000     0.0000000000     0.0000000000     -0.0014722800     0.0094740700    -0.0051471700
         0.0000000000     0.0000000000     0.0000000000     -0.0031681700    -0.0033792700     0.0007837700
         0.0000000000     0.0000000000     0.0000000000      0.0029874100    -0.0046204400     0.0006790200
         0.0000000000     0.0000000000     0.0000000000     -0.0022032400     0.0036091900    -0.0011983000
