CRYSTAL
PRIMVEC
     8.5428654021    0.0000000000    0.0000000000
     0.0000000000   29.9999975181    0.0000000000
     0.0000000000    0.0000000000   15.4999955853
PRIMCOORD
 43 1
         0.0000000000     0.0000000000     0.0000000000      0.0874971100     0.0083014100    -0.0003588800
         0.0000000000     0.0000000000     0.0000000000     -0.0875256100     0.0089926500    -0.0000432600
         0.0000000000     0.0000000000     0.0000000000      0.0136804700    -0.0215289600     0.0006675600
         0.0000000000     0.0000000000     0.0000000000     -0.0141988000    -0.0218481600    -0.0000041400
         0.0000000000     0.0000000000     0.0000000000      0.0001448600    -0.0001197100    -0.0000029400
         0.0000000000     0.0000000000     0.0000000000     -0.0001212600    -0.0000925800     0.0000025200
         0.0000000000     0.0000000000     0.0000000000     -0.0000573800    -0.0000465300     0.0000241100
         0.0000000000     0.0000000000     0.0000000000      0.0000900300    -0.0000749400     0.0000203600
         0.0000000000     0.0000000000     0.0000000000      0.0000784500    -0.0000691600    -0.0000426700
         0.0000000000     0.0000000000     0.0000000000     -0.0001422100     0.0000020200     0.0001469100
         0.0000000000     0.0000000000     0.0000000000      0.0001918900     0.0002012000     0.0000695200
         0.0000000000     0.0000000000     0.0000000000      0.0001146800     0.0000578800    -0.0001575200
         0.0000000000     0.0000000000     0.0000000000     -0.0007987400    -0.0013003900    -0.0005773800
         0.0000000000     0.0000000000     0.0000000000      0.0004459500    -0.0005311100    -0.0003549200
         0.0000000000     0.0000000000     0.0000000000      0.0878749800     0.0078852800    -0.0001084700
         0.0000000000     0.0000000000     0.0000000000     -0.0878415900     0.0084063300    -0.0002079600
         0.0000000000     0.0000000000     0.0000000000      0.0138330000    -0.0226746700    -0.0001444900
         0.0000000000     0.0000000000     0.0000000000     -0.0131218300    -0.0224288800     0.0003324800
         0.0000000000     0.0000000000     0.0000000000      0.0001655200    -0.0001200000    -0.0000105900
         0.0000000000     0.0000000000     0.0000000000     -0.0001447300    -0.0000836800     0.0000573900
         0.0000000000     0.0000000000     0.0000000000     -0.0000940700    -0.0000160900    -0.0000650700
         0.0000000000     0.0000000000     0.0000000000      0.0001105800    -0.0000809200     0.0000136800
         0.0000000000     0.0000000000     0.0000000000      0.0000910500     0.0000306200     0.0000715700
         0.0000000000     0.0000000000     0.0000000000     -0.0001399100     0.0000930000    -0.0000802000
         0.0000000000     0.0000000000     0.0000000000     -0.0001738600     0.0001221300    -0.0000781900
         0.0000000000     0.0000000000     0.0000000000      0.0001057600     0.0000315100     0.0000479700
         0.0000000000     0.0000000000     0.0000000000      0.0000404900     0.0008385000     0.0001576600
         0.0000000000     0.0000000000     0.0000000000     -0.0001910500     0.0011992200    -0.0004932700
         0.0000000000     0.0000000000     0.0000000000      0.0083113400     0.0112062500    -0.0001002700
         0.0000000000     0.0000000000     0.0000000000     -0.0083105800     0.0111542700     0.0000069000
         0.0000000000     0.0000000000     0.0000000000      0.0083633000     0.0111558000    -0.0000009900
         0.0000000000     0.0000000000     0.0000000000     -0.0083167800     0.0111334900    -0.0000379100
         0.0000000000     0.0000000000     0.0000000000      0.0032900500    -0.0005443200     0.0001944600
         0.0000000000     0.0000000000     0.0000000000     -0.0029289900    -0.0020778500    -0.0010833100
         0.0000000000     0.0000000000     0.0000000000      0.0019676700     0.0039111500     0.0010861700
         0.0000000000     0.0000000000     0.0000000000      0.0060263500     0.0095585000    -0.0008775200
         0.0000000000     0.0000000000     0.0000000000      0.0045819800     0.0055281200     0.0020755000
         0.0000000000     0.0000000000     0.0000000000     -0.0031476100    -0.0048728800    -0.0009015900
         0.0000000000     0.0000000000     0.0000000000     -0.0018822000     0.0097832100    -0.0069088700
         0.0000000000     0.0000000000     0.0000000000     -0.0029755500    -0.0035991100     0.0006882100
         0.0000000000     0.0000000000     0.0000000000      0.0029970800    -0.0046574500     0.0007089500
         0.0000000000     0.0000000000     0.0000000000     -0.0024615500     0.0034833700    -0.0014060200
         0.0000000000     0.0000000000     0.0000000000     -0.0054282700    -0.0063085100     0.0076745000
