CRYSTAL
PRIMVEC
     8.5428654021    0.0000000000    0.0000000000
     0.0000000000   29.9999975181    0.0000000000
     0.0000000000    0.0000000000   15.4999955853
PRIMCOORD
 44 1
         0.0000000000     0.0000000000     0.0000000000      0.0811948600     0.0122060000    -0.0001767900
         0.0000000000     0.0000000000     0.0000000000     -0.0808120300     0.0118235400     0.0001079400
         0.0000000000     0.0000000000     0.0000000000      0.0210079400    -0.0258866600     0.0003368700
         0.0000000000     0.0000000000     0.0000000000     -0.0227889300    -0.0265983700    -0.0001289600
         0.0000000000     0.0000000000     0.0000000000      0.0001822300     0.0000389700    -0.0000264400
         0.0000000000     0.0000000000     0.0000000000     -0.0000732500     0.0001016400    -0.0000006200
         0.0000000000     0.0000000000     0.0000000000     -0.0001278100     0.0000421200     0.0000425400
         0.0000000000     0.0000000000     0.0000000000      0.0002703000    -0.0002056400    -0.0000248800
         0.0000000000     0.0000000000     0.0000000000      0.0006875900    -0.0002053700     0.0000900200
         0.0000000000     0.0000000000     0.0000000000     -0.0006189500    -0.0000667100     0.0000627400
         0.0000000000     0.0000000000     0.0000000000      0.0001335500     0.0006836900     0.0000513600
         0.0000000000     0.0000000000     0.0000000000      0.0000719400     0.0003515900    -0.0000510600
         0.0000000000     0.0000000000     0.0000000000      0.0002651700    -0.0007822700    -0.0007331100
         0.0000000000     0.0000000000     0.0000000000      0.0003272000    -0.0002175300     0.0002489200
         0.0000000000     0.0000000000     0.0000000000      0.0829974400     0.0108390300     0.0000588800
         0.0000000000     0.0000000000     0.0000000000     -0.0827421100     0.0108268700    -0.0000286600
         0.0000000000     0.0000000000     0.0000000000      0.0221129200    -0.0238174300    -0.0003287200
         0.0000000000     0.0000000000     0.0000000000     -0.0211141300    -0.0251443900     0.0001506500
         0.0000000000     0.0000000000     0.0000000000      0.0001438400     0.0003876000    -0.0000053500
         0.0000000000     0.0000000000     0.0000000000     -0.0000687700     0.0002323300    -0.0000079700
         0.0000000000     0.0000000000     0.0000000000     -0.0003543600    -0.0004574500    -0.0000342900
         0.0000000000     0.0000000000     0.0000000000      0.0001848700    -0.0002519200     0.0000196800
         0.0000000000     0.0000000000     0.0000000000      0.0008403500     0.0000761300     0.0000563300
         0.0000000000     0.0000000000     0.0000000000     -0.0010088100    -0.0003549300    -0.0000071300
         0.0000000000     0.0000000000     0.0000000000     -0.0001320400     0.0004402700    -0.0000097400
         0.0000000000     0.0000000000     0.0000000000      0.0001244200     0.0009374200    -0.0000167400
         0.0000000000     0.0000000000     0.0000000000      0.0002517300     0.0007360600     0.0000817400
         0.0000000000     0.0000000000     0.0000000000     -0.0006406400     0.0002601700     0.0001324900
         0.0000000000     0.0000000000     0.0000000000      0.0084217000     0.0111241300    -0.0000270500
         0.0000000000     0.0000000000     0.0000000000     -0.0084647600     0.0111828600     0.0000320400
         0.0000000000     0.0000000000     0.0000000000      0.0084777000     0.0111329200     0.0000238300
         0.0000000000     0.0000000000     0.0000000000     -0.0084885300     0.0111470700    -0.0000053900
         0.0000000000     0.0000000000     0.0000000000      0.0027518400    -0.0004673400     0.0015671000
         0.0000000000     0.0000000000     0.0000000000     -0.0046145600    -0.0047987400    -0.0006847700
         0.0000000000     0.0000000000     0.0000000000      0.0014140200     0.0047302900     0.0012770300
         0.0000000000     0.0000000000     0.0000000000      0.0031512700     0.0018482900    -0.0043694700
         0.0000000000     0.0000000000     0.0000000000      0.0043127700     0.0055488900     0.0072567000
         0.0000000000     0.0000000000     0.0000000000     -0.0029883900    -0.0048588600    -0.0005103200
         0.0000000000     0.0000000000     0.0000000000     -0.0029314500     0.0026577700     0.0045296000
         0.0000000000     0.0000000000     0.0000000000     -0.0032392000    -0.0034197200     0.0006998800
         0.0000000000     0.0000000000     0.0000000000      0.0028797500    -0.0048587200     0.0005537200
         0.0000000000     0.0000000000     0.0000000000     -0.0016320300     0.0053042200    -0.0010096600
         0.0000000000     0.0000000000     0.0000000000      0.0054892300     0.0054866500    -0.0150887000
         0.0000000000     0.0000000000     0.0000000000     -0.0048538800     0.0022455300     0.0058957700
