CRYSTAL
PRIMVEC
 8.54286592742127 0.00000000000000 0.00000000000000
 0.00000000000000 29.99999936305714 0.00000000000000
 0.00000000000000 0.00000000000000 15.49999653852868
PRIMCOORD
 46 1
  6     1.42374298100000     2.99499287600000     5.00000000000000     0.00000000000000     0.00000000000000     0.00000000000000
  6     2.84748596200000     2.99499287600000     5.00000000000000     0.00000000000000     0.00000000000000     0.00000000000000
  6     0.71187149100000     4.22799046600000     5.00000000000000     0.00000000000000     0.00000000000000     0.00000000000000
  6     3.55935745300000     4.22799046600000     5.00000000000000     0.00000000000000     0.00000000000000     0.00000000000000
  6     1.42620460900000     5.45491891900000     5.00134572400000     0.00000029290753    -0.00000059526368    -0.00000064250683
  6     2.84911049400000     5.45506338500000     4.99975383100000    -0.00000134170545    -0.00000462982866     0.00003940078676
  6     0.71265865600000     6.69029736400000     5.00566440700000    -0.00000110548970     0.00000732268819     0.00001985157146
  6     3.56102600400000     6.70344288800000     4.99109827900000     0.00001058246551    -0.00001286903395     0.00004072359495
  6     1.42206158800000     7.93297178400000     5.01284463900000     0.00003036789656     0.00000124721915    -0.00001040294154
  6     2.85706747200000     7.93107133300000     4.98629744400000     0.00004832974204    -0.00001011948264    -0.00004279284490
  6     0.71778361900000     9.14282581000000     5.04283498000000    -0.00000915572239    -0.00002797739319     0.00002295072207
  6     3.57011828000000     9.17875109900000     4.94016222300000     0.00002507666381    -0.00000050077739    -0.00003489379029
  6     1.42306656400000    10.45951623100000     5.03787699000000    -0.00002570972201    -0.00000211649310     0.00003179463968
  6     2.90401603600000    10.41768592900000     4.93298690200000    -0.00002839313291    -0.00001330367093    -0.00000874943131
  6     5.69497192400000     2.99499287600000     5.00000000000000     0.00000000000000     0.00000000000000     0.00000000000000
  6     7.11871490500000     2.99499287600000     5.00000000000000     0.00000000000000     0.00000000000000     0.00000000000000
  6     4.98310043400000     4.22799046600000     5.00000000000000     0.00000000000000     0.00000000000000     0.00000000000000
  6     7.83058639500000     4.22799046600000     5.00000000000000     0.00000000000000     0.00000000000000     0.00000000000000
  6     5.69658972300000     5.45412533400000     4.99629037700000    -0.00001491938664     0.00001583590374    -0.00000742662312
  6     7.12006472800000     5.45140052500000     4.99618172000000    -0.00001999330091    -0.00001420129077    -0.00001555244485
  6     4.98693394100000     6.69011149300000     4.98910134100000    -0.00000090706847     0.00001432412296     0.00003795514638
  6     7.83868798200000     6.68738586200000     4.99706790900000    -0.00000831479433    -0.00001199031137     0.00001741382494
  6     5.70480853800000     7.91670048700000     4.97701048800000    -0.00002983877328     0.00002219483168     0.00001167850658
  6     7.12872927600000     7.91553758400000     4.98964541600000    -0.00002793015004    -0.00001842482834     0.00001081868126
  6     4.99774788800000     9.14709350500000     4.93141280000000     0.00001129111275     0.00002829864661    -0.00002460423231
  6     7.84804508700000     9.15028174900000     5.02884459700000    -0.00002544516037    -0.00004931239955     0.00000751166079
  6     5.71512253400000    10.36277030200000     4.90412082800000    -0.00001518394828     0.00003139779722    -0.00001060136277
  6     7.11469539900000    10.36407530500000     5.02760560000000    -0.00002375385562    -0.00003359932799    -0.00001316194148
  1     0.90511317300000     2.02921292800000     5.00000000000000     0.00000000000000     0.00000000000000     0.00000000000000
  1     3.36611577100000     2.02921292800000     5.00000000000000     0.00000000000000     0.00000000000000     0.00000000000000
  1     5.17634211700000     2.02921292800000     5.00000000000000     0.00000000000000     0.00000000000000     0.00000000000000
  1     7.63734470500000     2.02921292800000     5.00000000000000     0.00000000000000     0.00000000000000     0.00000000000000
  1     1.13847371300000    11.05593056900000     5.93462018200000     0.00001467372226     0.00001088482167     0.00005335641315
 78     7.69215778100000    12.39577345100000     4.09445911200000     0.00003440246154    -0.00001654455099     0.00002697583842
  6     5.79422117500000    12.76304262000000     4.37849294100000     0.00001096985934    -0.00002247829058    -0.00000895730116
  6     3.61869545900000    11.65158094000000     4.79703632100000    -0.00002748606443    -0.00000168185613    -0.00000337316088
  6     5.03846769700000    11.60555872500000     4.71152916700000    -0.00002991436232     0.00001099820523     0.00002107044472
  1     3.24949033500000    15.02381028400000     4.34490080500000    -0.00002889391029     0.00001697918796     0.00001239660245
  1     1.90460712700000    13.02399223900000     4.78819697600000    -0.00000184248283    -0.00001588314689    -0.00001128166412
  6     2.99217854300000    12.92013313000000     4.68832646500000    -0.00000329757184     0.00001134780453    -0.00002156177348
  1     1.00642054000000    11.06544647700000     4.17018228000000    -0.00002718370828     0.00004175349561     0.00003259777322
  6     5.14695155200000    13.98616362400000     4.24877642000000     0.00000975098608    -0.00002064525637     0.00000097320888
  1     7.87429375900000    13.65388611900000     3.16859162200000     0.00002241215017    -0.00001090371893     0.00002724040006
  1     7.56847139100000    11.25212444300000     5.59421457200000    -0.00004955806393    -0.00003336311224    -0.00002961200617
  1     5.70655253900000    14.88871550300000     3.98622682700000    -0.00003393003004    -0.00000859825323    -0.00001744217083
  6     3.75000852000000    14.05236463300000     4.43546692700000     0.00000141729449     0.00001401231817    -0.00000534792453
