CRYSTAL
PRIMVEC
 8.54286539824406 0.00000000000000 0.00000000000000
 0.00000000000000 29.99999750474448 0.00000000000000
 0.00000000000000 0.00000000000000 15.49999557840067
PRIMCOORD
 41 1
  6     1.42374284154634     2.99499277706454     4.99999986888626     0.07552370207649     0.01314592604952    -0.00038029790561
  6     2.84748568309268     2.99499277706454     4.99999986888626    -0.07579623835788     0.01346290868604    -0.00035356773157
  6     0.71187184791644     4.22799051999888     4.99999986888626     0.02228003942445    -0.01857618594482     0.00071257787397
  6     3.55935753100911     4.22799051999888     4.99999986888626    -0.02425659831722    -0.02170324781104     0.00053498142602
  6     1.42384962736382     5.46209029256960     5.00857178002686     0.00011643546649    -0.00014969464381    -0.00002551130078
  6     2.84682788245701     5.45582666365961     5.00815915962812    -0.00017979797873    -0.00004045903331    -0.00000183303420
  6     0.71395374421399     6.70704206705571     5.02307671118654     0.00020165265973     0.00008115428237    -0.00000308025335
  6     3.56022890327974     6.69451139208956     5.02162698692845    -0.00012545890807     0.00007289617983    -0.00001976653379
  6     1.42609469239047     7.95137790094660     5.04318917919362    -0.00014141764400    -0.00028719110639     0.00000634003068
  6     2.84672365949915     7.92799351549199     5.04187870364153     0.00010602307632    -0.00016969739335    -0.00002180743785
  6     0.74467815961878     9.20406609433736     5.06685718777946    -0.00034674582077    -0.00009783111418    -0.00000946752718
  6     3.55465980932662     9.15971495433583     5.06419608520790     0.00026710331918     0.00006057516641    -0.00004570302292
  6     1.45245797500946    10.48033259622727     5.09491622917999     0.00025388468592     0.00022783481324     0.00001302021203
  6     2.90420262075816    10.43768063215346     5.09319484180224    -0.00008313849466     0.00041325472677    -0.00003973148881
  6     5.69497136618535     2.99499277706454     4.99999986888626     0.07691217824309     0.00912785838193    -0.00034162466335
  6     7.11871506201823     2.99499277706454     4.99999986888626    -0.07826942668782     0.01108664440181    -0.00038366161786
  6     4.98310037255545     4.22799051999888     4.99999986888626     0.02246199169080    -0.03393488663508     0.00035455038908
  6     7.83058605564813     4.22799051999888     4.99999986888626    -0.01874022360884    -0.02436537094485     0.00046488204065
  6     5.69921460742866     5.44467993288798     5.00704346140711     0.00021215953620    -0.00011378040149    -0.00005324302959
  6     7.12181014215201     5.45203619428241     5.00746120752509    -0.00021568387516    -0.00012313454511    -0.00002667348226
  6     4.98436898806709     6.67468596435986     5.02013198548376    -0.00001912402696     0.00020200225904    -0.00000775732516
  6     7.83740582509555     6.69412354600048     5.02175342133635     0.00000022676712     0.00019748581394    -0.00001858545505
  6     5.69971607362754     7.89112677986587     5.03789858265249    -0.00013139264765    -0.00002994270821    -0.00000115273285
  6     7.13483801188434     7.92191184961498     5.03974896729775     0.00020744466987     0.00000366606841    -0.00005542566311
  6     4.96227542957415     9.09018628143261     5.06007671551287     0.00000173854791    -0.00013693899342    -0.00002357433165
  6     7.86175811719978     9.16739413604232     5.06392356780170     0.00041830974378    -0.00015460793137    -0.00001516505102
  6     5.69997748530872    10.27713456272425     5.08494328811408    -0.00131142258961     0.00030089161977    -0.00001791460233
  6     7.10157123973703    10.33855776493763     5.08755227920670    -0.00176247183606    -0.00304088091274    -0.00007366151885
  1     0.90511317179780     2.02921244664111     4.99999986888626     0.00782772690506     0.01086040640703    -0.00008562348433
  1     3.36611535284121     2.02921244664111     4.99999986888626    -0.00788658242083     0.01051660855880    -0.00006947577579
  1     5.17634169643681     2.02921244664111     4.99999986888626     0.00823265738888     0.01033144375827    -0.00005522724188
  1     7.63734473176677     2.02921244664111     4.99999986888626    -0.00796588477174     0.01055019843816    -0.00006841752924
  1     1.11082366201444    13.90101293894015     5.17798278087982     0.00266160345916    -0.00351604306274    -0.00012312509648
  6     2.98311135986866    12.88686205034532     5.15222177027141     0.00143967829214     0.00561940256902     0.00013166665792
  1     3.54982113036506    13.82550169739853     5.17523454108120    -0.00304204309422    -0.00369025690118    -0.00010194126820
  6     5.13481568202249    11.53808370695511     5.11631696128913    -0.00163181618154    -0.00286610015649    -0.00008648330965
  6     1.59374330011178    12.91645282751176     5.15340239426945    -0.00079605651931     0.00552602175953     0.00012119757597
  6     0.77214945187991    11.74970329716772     5.12483590666426     0.00388877261578    -0.00028415809619    -0.00002412235218
  6     3.70961115620651    11.66970619700548     5.12170750935542     0.00060617685246     0.00085724584667    -0.00002123107143
 78     7.32494068701838    12.29571114194455     5.13776980487720    -0.00022117352915     0.00422942407025     0.00009165171021
  8     6.56008513361549    13.91755961493001     5.18177154168394    -0.00069680811064     0.00640657737620     0.00012396602454
