CRYSTAL
PRIMVEC
 8.54286539824406 0.00000000000000 0.00000000000000
 0.00000000000000 29.99999750474448 0.00000000000000
 0.00000000000000 0.00000000000000 15.49999557840067
PRIMCOORD
 43 1
  6     1.42374284154634     2.99499277706454     4.99999986888626     0.07858798724554     0.01166871779935     0.00001860435231
  6     2.84748568309268     2.99499277706454     4.99999986888626    -0.07765657910264     0.01169193308306     0.00001408790721
  6     0.71187184791644     4.22799051999888     4.99999986888626     0.02051874866713    -0.01254038225527    -0.00004394557775
  6     3.55935753100911     4.22799051999888     4.99999986888626    -0.02320560831406    -0.02028186206643    -0.00002494438299
  6     1.42192748264921     5.46383645425700     4.99958041419521     0.00009439181289    -0.00005348869397     0.00000728489367
  6     2.84530981527574     5.45703889625962     4.99964021425299    -0.00006888051211    -0.00048410055390    -0.00000424243483
  6     0.71060921241058     6.71244970085280     4.99902085651162    -0.00001041239017    -0.00009529888136     0.00001627998935
  6     3.55804107545125     6.69423204039104     4.99918060809457     0.00008954466574     0.00033145793756    -0.00001131001001
  6     1.41953206319154     7.96296886071894     4.99833742727976    -0.00034610331393     0.00038047742958     0.00000635892794
  6     2.84074877943962     7.93290651738252     4.99844848452994     0.00029238785284    -0.00034426083110    -0.00000348654444
  6     0.74107990471304     9.22552320935813     4.99774967814036     0.00030919696547    -0.00073372390773     0.00000811637310
  6     3.54668931591006     9.15651137981149     4.99796410406186     0.00040479820299     0.00009883266895     0.00001377610242
  6     1.46288966794725    10.50895461245755     4.99711152609511     0.00053586959723     0.00014967574655    -0.00000068974998
  6     2.90484504423611    10.44357606356478     4.99748741217264    -0.00040090536747     0.00017650985552    -0.00000298576705
  6     5.69497136618535     2.99499277706454     4.99999986888626     0.07909580386054     0.00726085635307     0.00001379499968
  6     7.11871506201823     2.99499277706454     4.99999986888626    -0.08001370046265     0.00906045185608     0.00001651620510
  6     4.98310037255545     4.22799051999888     4.99999986888626     0.02015945506583    -0.03271582440292    -0.00002078698582
  6     7.83058605564813     4.22799051999888     4.99999986888626    -0.01781902943488    -0.02562871890543    -0.00003390168415
  6     5.69774694315324     5.44394097503103     4.99970172288386     0.00017836178698    -0.00007567407702     0.00000869273953
  6     7.12093364416215     5.45048737278570     4.99965302855109    -0.00009360757661    -0.00037199255991     0.00001666738318
  6     4.98109194490033     6.67393760935097     4.99930447964284    -0.00031919361593    -0.00000022676712     0.00000109604107
  6     7.83659339859617     6.68982733899171     4.99917719094841     0.00015075289036     0.00029903968831     0.00001032735250
  6     5.69582992415788     7.89168719183599     4.99889100495757    -0.00028879737348     0.00050459463220     0.00000342985266
  6     7.13355999922076     7.91808635448964     4.99888331637871     0.00009335246360    -0.00010891435708    -0.00000561248617
  6     4.95397518155322     9.09147112838850     4.99823320432190    -0.00000962815389    -0.00095549270056     0.00002170350292
  6     7.85591479726738     9.15690520590635     4.99832717584128    -0.00012073459311     0.00001822640711     0.00000568807521
  6     5.67747984928245    10.28051155741618     4.99767279235178    -0.00015544885943     0.00070197651121     0.00001316194148
  6     7.07767940807776    10.31706989560143     4.99816656997180    -0.00151291462264    -0.00423804122074    -0.00002860100276
  1     0.90511317179780     2.02921244664111     4.99999986888626     0.00771130088720     0.01084277526360     0.00000529123275
  1     3.36611535284121     2.02921244664111     4.99999986888626    -0.00784628401423     0.01053533574330     0.00000320308554
  1     5.17634169643681     2.02921244664111     4.99999986888626     0.00819953994101     0.01026253490027     0.00000291962664
  1     7.63734473176677     2.02921244664111     4.99999986888626    -0.00800815794200     0.01045077050552     0.00000411015401
  1     1.20121144936056    13.94647721430306     4.99884829063058     0.00363416038535    -0.00440871182297     0.00000010393493
  6     3.05042657634720    12.88812383156464     4.99825968720464     0.00183481054672     0.00579033773288    -0.00000478100674
  1     3.65929282472431    13.80128011113489     4.99868255904185    -0.00346299845437    -0.00371444539378    -0.00000558414028
  6     5.16662333275977    11.60234399476725     4.99643151400941    -0.00197436681062    -0.00197112593056     0.00001188637644
  6     1.66875392974106    12.95522889355439     4.99832546726820     0.00024232901153     0.00537593027326     0.00001177299288
  6     0.82085318180184    11.82222795296611     4.99647166547678     0.00424361591239     0.00043422123656     0.00001055411962
  6     3.73040363629930    11.65128009062801     4.99729263484156     0.00077539236568     0.00138023696131    -0.00000593373959
 78     7.35259223373942    12.19159411561691     4.99381825148409    -0.00187424912800    -0.00188010727855     0.00009815236760
  8     7.56045808889603    14.18998561247423     4.97446524421091    -0.00156040343661     0.00913724087144    -0.00012578016148
  8     6.31950010398360    14.91597710832089     4.96035328485955     0.00210576890691     0.01064405167915    -0.00020233296109
  1     6.66169995466799    15.84685556215979     4.93916527009882    -0.00250952776061    -0.00659378308079     0.00018134755404
