CRYSTAL
PRIMVEC
     9.8639806455    0.0000000000    0.0000000000
     0.0000000000   29.9999950877    0.0000000000
     0.0000000000    0.0000000000   15.5000027228
PRIMCOORD
 51 1
         0.0000000000     0.0000000000     0.0000000000     -0.0010021800    -0.0411986100    -0.0010703500
         0.0000000000     0.0000000000     0.0000000000     -0.0004681700    -0.0003541800    -0.0000148700
         0.0000000000     0.0000000000     0.0000000000      0.0026823200     0.0334822800     0.0004592500
         0.0000000000     0.0000000000     0.0000000000      0.0008921700    -0.0009147400     0.0014468500
         0.0000000000     0.0000000000     0.0000000000     -0.0075628900    -0.0433944300    -0.0033264000
         0.0000000000     0.0000000000     0.0000000000     -0.0002292300     0.0012388100     0.0019500000
         0.0000000000     0.0000000000     0.0000000000     -0.0006259000     0.0335488400     0.0007674900
         0.0000000000     0.0000000000     0.0000000000      0.0011803800     0.0015627900     0.0009679900
         0.0000000000     0.0000000000     0.0000000000     -0.0024657300    -0.0511032200    -0.0028592300
         0.0000000000     0.0000000000     0.0000000000      0.0012010400     0.0008909800     0.0015238300
         0.0000000000     0.0000000000     0.0000000000     -0.0026507700     0.0339274800     0.0004158200
         0.0000000000     0.0000000000     0.0000000000      0.0000816300    -0.0003075800     0.0001965600
         0.0000000000     0.0000000000     0.0000000000      0.0016785000    -0.0454465100    -0.0007135000
         0.0000000000     0.0000000000     0.0000000000      0.0016710700    -0.0001373900    -0.0005464300
         0.0000000000     0.0000000000     0.0000000000      0.0007349900     0.0351283500     0.0004054400
         0.0000000000     0.0000000000     0.0000000000      0.0010010500     0.0000539600     0.0000407700
         0.0000000000     0.0000000000     0.0000000000      0.0008772300    -0.0002322200    -0.0008451500
         0.0000000000     0.0000000000     0.0000000000      0.0033104000    -0.0021689300     0.0005884900
         0.0000000000     0.0000000000     0.0000000000     -0.0005203800    -0.0015353600    -0.0000539300
         0.0000000000     0.0000000000     0.0000000000      0.0015232600     0.0012184200    -0.0009398400
         0.0000000000     0.0000000000     0.0000000000      0.0006719100    -0.0000784600     0.0001483000
         0.0000000000     0.0000000000     0.0000000000      0.0015144500    -0.0012998500    -0.0010984300
         0.0000000000     0.0000000000     0.0000000000     -0.0002024000     0.0023982000     0.0007634500
         0.0000000000     0.0000000000     0.0000000000     -0.0000072700    -0.0002741500     0.0003181600
         0.0000000000     0.0000000000     0.0000000000      0.0005425300     0.0013570300     0.0009812700
         0.0000000000     0.0000000000     0.0000000000      0.0008209800    -0.0003226000    -0.0004458300
         0.0000000000     0.0000000000     0.0000000000     -0.0002099900    -0.0005482600    -0.0000951400
         0.0000000000     0.0000000000     0.0000000000     -0.0005926100    -0.0003899300    -0.0016642800
         0.0000000000     0.0000000000     0.0000000000     -0.0006368400     0.0002669000    -0.0002704200
         0.0000000000     0.0000000000     0.0000000000     -0.0002089000    -0.0023144400     0.0001975500
         0.0000000000     0.0000000000     0.0000000000      0.0002102800    -0.0004421400    -0.0003205300
         0.0000000000     0.0000000000     0.0000000000      0.0019991600    -0.0030506300     0.0034930800
         0.0000000000     0.0000000000     0.0000000000     -0.0001026500     0.0098982700     0.0003413100
         0.0000000000     0.0000000000     0.0000000000     -0.0004485600     0.0100284200     0.0005262300
         0.0000000000     0.0000000000     0.0000000000     -0.0001027600     0.0100809500     0.0003099800
         0.0000000000     0.0000000000     0.0000000000      0.0001562500     0.0099779100     0.0001752300
         0.0000000000     0.0000000000     0.0000000000     -0.0022855800     0.0046800100     0.0010135300
         0.0000000000     0.0000000000     0.0000000000      0.0052226500    -0.0028627700     0.0009105500
         0.0000000000     0.0000000000     0.0000000000     -0.0018942000    -0.0004007400    -0.0035423500
         0.0000000000     0.0000000000     0.0000000000     -0.0025089700     0.0049226600     0.0002023400
         0.0000000000     0.0000000000     0.0000000000      0.0031955300    -0.0009159600    -0.0042784200
         0.0000000000     0.0000000000     0.0000000000      0.0045240600    -0.0016560900     0.0049559800
         0.0000000000     0.0000000000     0.0000000000      0.0008316100    -0.0052865900     0.0008096200
         0.0000000000     0.0000000000     0.0000000000     -0.0001680200     0.0000182200    -0.0007752300
         0.0000000000     0.0000000000     0.0000000000     -0.0053204900    -0.0007362200     0.0010835400
         0.0000000000     0.0000000000     0.0000000000      0.0022334500    -0.0006134500     0.0056701100
         0.0000000000     0.0000000000     0.0000000000     -0.0017957200    -0.0012749100     0.0000781700
         0.0000000000     0.0000000000     0.0000000000      0.0006656800     0.0077727500     0.0000348200
         0.0000000000     0.0000000000     0.0000000000     -0.0032600900    -0.0014604600     0.0012184200
         0.0000000000     0.0000000000     0.0000000000      0.0004196300    -0.0016164100     0.0048838400
         0.0000000000     0.0000000000     0.0000000000     -0.0045719300     0.0098839900    -0.0140176300
