CRYSTAL
PRIMVEC
     9.8639806455    0.0000000000    0.0000000000
     0.0000000000   29.9999950877    0.0000000000
     0.0000000000    0.0000000000   15.5000027228
PRIMCOORD
 52 1
         0.0000000000     0.0000000000     0.0000000000     -0.0006942000    -0.0451183500     0.0000208200
         0.0000000000     0.0000000000     0.0000000000     -0.0001092100    -0.0004912300     0.0000192600
         0.0000000000     0.0000000000     0.0000000000      0.0004262700     0.0333942600    -0.0000941800
         0.0000000000     0.0000000000     0.0000000000      0.0000346500     0.0000764200    -0.0000249700
         0.0000000000     0.0000000000     0.0000000000     -0.0000107800    -0.0455490900     0.0003540700
         0.0000000000     0.0000000000     0.0000000000     -0.0001445900    -0.0003740300    -0.0000092200
         0.0000000000     0.0000000000     0.0000000000     -0.0016372900     0.0335322700     0.0000450300
         0.0000000000     0.0000000000     0.0000000000      0.0000113500     0.0002787000     0.0000590000
         0.0000000000     0.0000000000     0.0000000000      0.0003128100    -0.0474035700     0.0000342400
         0.0000000000     0.0000000000     0.0000000000      0.0001312700    -0.0003438000     0.0000101800
         0.0000000000     0.0000000000     0.0000000000     -0.0003674600     0.0335830300     0.0000286600
         0.0000000000     0.0000000000     0.0000000000      0.0000191200    -0.0000199300    -0.0000501400
         0.0000000000     0.0000000000     0.0000000000      0.0003585900    -0.0465983900    -0.0005337300
         0.0000000000     0.0000000000     0.0000000000      0.0001238700    -0.0004869000     0.0000205500
         0.0000000000     0.0000000000     0.0000000000      0.0012939100     0.0340745700     0.0001156600
         0.0000000000     0.0000000000     0.0000000000      0.0000168100    -0.0001345900     0.0000330100
         0.0000000000     0.0000000000     0.0000000000     -0.0001902700     0.0003882300     0.0002687200
         0.0000000000     0.0000000000     0.0000000000     -0.0004037100     0.0001561500     0.0004784900
         0.0000000000     0.0000000000     0.0000000000      0.0003131500    -0.0001068500    -0.0000018000
         0.0000000000     0.0000000000     0.0000000000      0.0002977700     0.0005643700     0.0006520100
         0.0000000000     0.0000000000     0.0000000000     -0.0001121900    -0.0001413900     0.0000636800
         0.0000000000     0.0000000000     0.0000000000     -0.0003602200     0.0000297700     0.0002359600
         0.0000000000     0.0000000000     0.0000000000      0.0000314400    -0.0002486700     0.0000051200
         0.0000000000     0.0000000000     0.0000000000      0.0001044300     0.0006755700     0.0001495900
         0.0000000000     0.0000000000     0.0000000000      0.0001681600    -0.0003501900    -0.0000012600
         0.0000000000     0.0000000000     0.0000000000      0.0004504200     0.0003003600    -0.0000555400
         0.0000000000     0.0000000000     0.0000000000     -0.0003490500    -0.0000672000     0.0001274600
         0.0000000000     0.0000000000     0.0000000000     -0.0002489700    -0.0005036200     0.0002232400
         0.0000000000     0.0000000000     0.0000000000      0.0002221300     0.0001346500     0.0000434800
         0.0000000000     0.0000000000     0.0000000000      0.0001736300    -0.0000818900     0.0005784700
         0.0000000000     0.0000000000     0.0000000000     -0.0000892100    -0.0001999900    -0.0000024700
         0.0000000000     0.0000000000     0.0000000000      0.0000033600     0.0004308500     0.0027747300
         0.0000000000     0.0000000000     0.0000000000      0.0000350000     0.0100108200    -0.0000545000
         0.0000000000     0.0000000000     0.0000000000     -0.0000423400     0.0099780700    -0.0000436000
         0.0000000000     0.0000000000     0.0000000000      0.0001256500     0.0100824200     0.0000533000
         0.0000000000     0.0000000000     0.0000000000      0.0001717900     0.0100573000     0.0000556100
         0.0000000000     0.0000000000     0.0000000000     -0.0019179600     0.0037592900     0.0025220300
         0.0000000000     0.0000000000     0.0000000000      0.0062206700    -0.0027554900     0.0004234700
         0.0000000000     0.0000000000     0.0000000000      0.0001671600    -0.0056545400     0.0001969800
         0.0000000000     0.0000000000     0.0000000000     -0.0019317000     0.0051135400     0.0012181900
         0.0000000000     0.0000000000     0.0000000000      0.0025262800    -0.0010772200    -0.0041601900
         0.0000000000     0.0000000000     0.0000000000      0.0004817900     0.0001622900     0.0000053500
         0.0000000000     0.0000000000     0.0000000000     -0.0006169300    -0.0053822600     0.0001378600
         0.0000000000     0.0000000000     0.0000000000     -0.0008492600     0.0006150500     0.0003947200
         0.0000000000     0.0000000000     0.0000000000     -0.0054238900    -0.0004550200     0.0006541800
         0.0000000000     0.0000000000     0.0000000000      0.0032567500    -0.0006025600     0.0040234700
         0.0000000000     0.0000000000     0.0000000000      0.0000318700     0.0005913800    -0.0000122300
         0.0000000000     0.0000000000     0.0000000000     -0.0000328600     0.0081291600    -0.0002956600
         0.0000000000     0.0000000000     0.0000000000     -0.0043646200    -0.0013151400     0.0020577700
         0.0000000000     0.0000000000     0.0000000000     -0.0035184300     0.0050716400    -0.0054278600
         0.0000000000     0.0000000000     0.0000000000      0.0129094900    -0.0035259200    -0.0062644900
         0.0000000000     0.0000000000     0.0000000000     -0.0070044600     0.0077977000    -0.0010525200
