CRYSTAL
PRIMVEC
 8.54286592742127 0.00000000000000 0.00000000000000
 0.00000000000000 29.99999936305714 0.00000000000000
 0.00000000000000 0.00000000000000 15.49999653852868
PRIMCOORD
 46 1
  6     1.42374298100000     2.99499287600000     5.00000000000000     0.00000000000000     0.00000000000000     0.00000000000000
  6     2.84748596200000     2.99499287600000     5.00000000000000     0.00000000000000     0.00000000000000     0.00000000000000
  6     0.71187149100000     4.22799046600000     5.00000000000000     0.00000000000000     0.00000000000000     0.00000000000000
  6     3.55935745300000     4.22799046600000     5.00000000000000     0.00000000000000     0.00000000000000     0.00000000000000
  6     1.42214566200000     5.45656869500000     4.99624056900000    -0.00000185193146    -0.00000937304088    -0.00000165351024
  6     2.84661703300000     5.45110092600000     4.99951327200000    -0.00000911792787    -0.00001306745518     0.00001895395162
  6     0.70698784200000     6.69524547800000     4.98926348900000     0.00000445030469    -0.00000125666778    -0.00000384559238
  6     3.56236339100000     6.68530661400000     5.00676706500000    -0.00002071139678    -0.00001497607842    -0.00000373220882
  6     1.42143161700000     7.93260683700000     4.99327701800000     0.00000178579105     0.00000117163011    -0.00000303301020
  6     2.84519022800000     7.91470547200000     5.01689249600000    -0.00000586759918    -0.00001561858526    -0.00000853211282
  6     0.71241035000000     9.17539880000000     4.98816253600000     0.00000072754450     0.00000424243483     0.00001801853726
  6     3.56657288100000     9.13285841500000     5.04295617200000     0.00000706757518    -0.00002235545839    -0.00000050077739
  6     1.45941235500000    10.36641274500000     5.07267370700000     0.00001948307489    -0.00001183913329     0.00000681246217
  6     2.86233863000000    10.35943506700000     5.08774382400000     0.00001301076340    -0.00002036179748    -0.00001760279754
  6     5.69497192400000     2.99499287600000     5.00000000000000     0.00000000000000     0.00000000000000     0.00000000000000
  6     7.11871490500000     2.99499287600000     5.00000000000000     0.00000000000000     0.00000000000000     0.00000000000000
  6     4.98310043400000     4.22799046600000     5.00000000000000     0.00000000000000     0.00000000000000     0.00000000000000
  6     7.83058639500000     4.22799046600000     5.00000000000000     0.00000000000000     0.00000000000000     0.00000000000000
  6     5.69517396200000     5.45440710700000     5.00218343200000    -0.00001169740384     0.00000693529436    -0.00004313299558
  6     7.11977471600000     5.45764982500000     5.00184075700000    -0.00000622664712     0.00000873053405    -0.00001806578041
  6     4.97959408800000     6.68995745800000     5.00532191400000    -0.00002379165014    -0.00000080313354    -0.00000943918129
  6     7.83401593800000     6.69704627300000     4.99654861000000     0.00000529123275     0.00000550855124     0.00004227317026
  6     5.69691529700000     7.92621473800000     4.99994270200000    -0.00000859825323    -0.00000518729783     0.00000658569505
  6     7.11793437900000     7.93502117900000     4.98726110300000    -0.00000576366425     0.00000438416428     0.00000348654444
  6     4.98200646600000     9.15116303000000     5.01747656700000    -0.00000044408561    -0.00000391173279     0.00001413515036
  6     7.81288527600000     9.18189809900000     4.94360172400000    -0.00000694474299     0.00001434302022    -0.00003503551974
  6     5.67122458100000    10.40875363900000     4.96626040100000    -0.00001624219483     0.00001542961266     0.00001948307489
  6     7.06911526100000    10.37435057100000     4.87378011400000    -0.00001476820856     0.00002444360560     0.00001657289688
  1     0.90511317300000     2.02921292800000     5.00000000000000     0.00000000000000     0.00000000000000     0.00000000000000
  1     3.36611577100000     2.02921292800000     5.00000000000000     0.00000000000000     0.00000000000000     0.00000000000000
  1     5.17634211700000     2.02921292800000     5.00000000000000     0.00000000000000     0.00000000000000     0.00000000000000
  1     7.63734470500000     2.02921292800000     5.00000000000000     0.00000000000000     0.00000000000000     0.00000000000000
  1     1.78778976800000    15.45038877500000     5.62146824700000     0.00002070194815     0.00000916517102     0.00003308910198
  1     0.76621565100000    14.63940538400000     4.39201904000000    -0.00001078088674    -0.00001253833190    -0.00003151118078
  1     5.46792384100000    12.58060858500000     5.01515159400000     0.00004117712919     0.00000728489367    -0.00000786126009
  6     2.85453704900000    13.99663852000000     4.37856943100000    -0.00002108934198    -0.00001165960932     0.00002660734185
  1     7.55738469500000    11.34210653300000     4.56625946200000     0.00000378890060     0.00001437136611    -0.00000824865392
 78     0.71183383500000    12.12708278200000     5.17397986500000     0.00002459478368     0.00000721875326    -0.00003154897530
  6     2.63537247900000    12.81000907000000     5.31260796600000    -0.00000776677379    -0.00001344540037    -0.00000511170879
  1     2.85370976400000    13.64836864000000     3.32848030500000    -0.00001003444497     0.00003607486903     0.00002494438299
  1     2.71518845400000    13.15318850700000     6.36993855600000     0.00002355543439     0.00004592979004    -0.00003876772856
  6     1.77790377000000    15.06298544000000     4.58628030000000    -0.00001200920863     0.00000145508901     0.00002602152680
  1     3.85640096600000    14.43999996500000     4.56538076400000    -0.00002245939332    -0.00002454754053     0.00001248164012
  6     4.91464378300000    11.63143755100000     5.01484664800000    -0.00001082812989     0.00002295072207    -0.00001679021537
  6     3.54488552800000    11.61175904400000     5.11971475000000    -0.00000154957531    -0.00000242829789     0.00000504556838
  1     1.89945288400000    15.91730246800000     3.89752364000000     0.00002721205417    -0.00005145723854    -0.00001713981467
