CRYSTAL
PRIMVEC
 8.54286539824406 0.00000000000000 0.00000000000000
 0.00000000000000 29.99999750474448 0.00000000000000
 0.00000000000000 0.00000000000000 15.49999557840067
PRIMCOORD
 44 1
  6     1.42374284154634     2.99499277706454     4.99999986888626     0.07965805403250     0.01014846159126    -0.00036291242656
  6     2.84748568309268     2.99499277706454     4.99999986888626    -0.07851797289784     0.00919791997278    -0.00033701373195
  6     0.71187184791644     4.22799051999888     4.99999986888626     0.01854984316460    -0.01902550609199     0.00050228916650
  6     3.55935753100911     4.22799051999888     4.99999986888626    -0.02001735712048    -0.02565085704533     0.00044432182194
  6     1.42140465928684     5.45627943552571     5.00749879613284     0.00025985622003     0.00023690549796     0.00002172240018
  6     2.84488096343275     5.45274183496430     5.00731427024024    -0.00013466187361     0.00001003444497    -0.00004486209486
  6     0.70802243276799     6.69914333370849     5.02154839256679     0.00036998000174     0.00011733308633    -0.00000139839723
  6     3.55978894571173     6.68575580934290     5.02042756862654    -0.00045491373608     0.00034306085510    -0.00002410345492
  6     1.41875893387300     7.93270576004566     5.04082451405139     0.00018308610194    -0.00037417519342    -0.00003360877662
  6     2.84382421098299     7.91739096524623     5.03953966709549    -0.00038414349799    -0.00090555669144     0.00000053857191
  6     0.70924320823340     9.17619585026213     5.06522122905569    -0.00023345674804     0.00040088647021    -0.00001819806122
  6     3.54753335101141     9.14093773619049     5.06235766057420     0.00044893275334     0.00080360597461     0.00004746046808
  6     1.40191923759998    10.42424783060126     5.09274377850922    -0.00054470406620     0.00042339310667     0.00001036514702
  6     2.83057166389069    10.37400382204802     5.09028257898798     0.00031247564005     0.00008902499110    -0.00001158402028
  6     5.69497136618535     2.99499277706454     4.99999986888626     0.07914917917095     0.00919573733926    -0.00034317423866
  6     7.11871506201823     2.99499277706454     4.99999986888626    -0.07945385024269     0.00977904850732    -0.00036079593346
  6     4.98310037255545     4.22799051999888     4.99999986888626     0.01965951860818    -0.02481328324616     0.00037641451872
  6     7.83058605564813     4.22799051999888     4.99999986888626    -0.01916420253057    -0.02109786464350     0.00048308010187
  6     5.69617163877381     5.45147834517190     5.00710326146490     0.00027564488063    -0.00003262611911     0.00003469536906
  6     7.11892692508011     5.45600264668681     5.00738432173650    -0.00017437446516    -0.00004685575577     0.00002927185549
  6     4.98041193281463     6.68644949001324     5.02041219146882     0.00041474761030     0.00050553004656    -0.00001806578041
  6     7.83149501652650     6.69756204932328     5.02151934682444    -0.00038138449805     0.00036196756357    -0.00001403121543
  6     5.69194292040167     7.91634788138110     5.03965755863799     0.00010007988810    -0.00060766028735    -0.00005038009473
  6     7.12088836697554     7.93223248530260     5.04078179972440    -0.00014519709597    -0.00070047417905    -0.00003430797524
  6     4.97725021833074     9.14312470973244     5.06246273781860    -0.00019962120430     0.00023741572398    -0.00000092596573
  6     7.83697953611217     9.16688412697804     5.06481971438198     0.00021199890949     0.00033850661548    -0.00000455423962
  6     5.69858414396227    10.36359604913334     5.08964357265619    -0.00096200280658     0.00078826139963     0.00001985157146
  6     7.13184630042187    10.41243390204203     5.09186300908666     0.00123416114277     0.00097977567946     0.00003421348894
  1     0.90511317179780     2.02921244664111     4.99999986888626     0.00792285571109     0.01060745713547    -0.00006734038543
  1     3.36611535284121     2.02921244664111     4.99999986888626    -0.00806434894413     0.01051616447319    -0.00006153892666
  1     5.17634169643681     2.02921244664111     4.99999986888626     0.00806108916681     0.01044503518716    -0.00005757050210
  1     7.63734473176677     2.02921244664111     4.99999986888626    -0.00798298679189     0.01062864096375    -0.00006621599847
 78     6.12531308490266    13.24683191534459     5.16044000678452     0.00045060516084     0.00735954729258     0.00015479690396
  1     4.00712754942538    14.56102275959693     4.30289265523761    -0.00002456643779    -0.00202115642598     0.00366326216550
  6     4.04328693579653    13.89386426917490     5.18643167475868    -0.00345338919774     0.00642195029708     0.00021502247107
  6     1.55400530742530    12.89724163180419     5.15562268498645    -0.00095368801225     0.00460396776024     0.00014879702397
  6     3.58967530602094    11.56293917383131     5.11941204142292     0.00019415044758     0.00085826629870    -0.00005860040276
  1     4.00908386560158    14.50024625229420     6.11277130421150    -0.00001876497902    -0.00173533537093    -0.00388020270845
  1     1.03236513191042    13.86338247114742     5.18156736720092     0.00416965203739    -0.00497649889206    -0.00015787715732
  6     7.78653904165478    11.66584909327817     5.12243707006043     0.00253765633188    -0.00590989124725    -0.00014489473981
  6     5.01633382752770    11.59224120214728     5.11964611593483    -0.00235183957589    -0.00614330075214    -0.00017138869810
  6     2.95559991614015    12.82202939055151     5.15368260025451    -0.00156809462137     0.00176414424356     0.00005809017674
  6     0.70139316921895    11.71572832147890     5.12462318931584    -0.00047666448216     0.00063456998536    -0.00000775732516
  8     7.48613601421785    14.42679042416740     5.18176043595892     0.00149863774283     0.00624444833542     0.00008909113151
