CRYSTAL
PRIMVEC
 8.54286539824406 0.00000000000000 0.00000000000000
 0.00000000000000 29.99999750474448 0.00000000000000
 0.00000000000000 0.00000000000000 15.49999557840067
PRIMCOORD
 45 1
  6     1.42374284154634     2.99499277706454     4.99999986888626     0.08096533812221     0.00894557541353     0.00001294462299
  6     2.84748568309268     2.99499277706454     4.99999986888626    -0.08005398942063     0.00803737310571     0.00001185803055
  6     0.71187184791644     4.22799051999888     4.99999986888626     0.01869105293874    -0.01765908302761    -0.00004014722853
  6     3.55935753100911     4.22799051999888     4.99999986888626    -0.02012574235428    -0.02328039421987    -0.00001359657845
  6     1.42170536814886     5.45598726952909     4.99969659716462     0.00013588074687    -0.00007522999142     0.00001652565373
  6     2.84530298098342     5.45239499462913     4.99971197432234    -0.00012560063751    -0.00008304400836     0.00001248164012
  6     0.70801303561605     6.69904679932949     4.99957699704905    -0.00003906063609     0.00001938858859     0.00003361822525
  6     3.56046041493203     6.68697829338139     4.99909517944059     0.00011867479178     0.00003119937599     0.00000120942463
  6     1.41867094235940     7.93499183082623     4.99901573079238    -0.00002062635911    -0.00006598923135     0.00002288458166
  6     2.84515006369280     7.92025709658734     4.99781374963085    -0.00006511050877    -0.00000269285953     0.00001432412296
  6     0.71141822176379     9.17556880394190     4.99904477653474    -0.00006582860465     0.00003390168415    -0.00000255113008
  6     3.54771616833093     9.14440784811526     4.99525601573061     0.00018027041023    -0.00001428632844    -0.00001688470167
  6     1.40312121876152    10.42726687923300     4.99566094755049     0.00010248928873     0.00041324527814     0.00005242099879
  6     2.83070066115821    10.38041353395633     4.99299386497316     0.00007422843664     0.00024686435389    -0.00000575421562
  6     5.69497136618535     2.99499277706454     4.99999986888626     0.07959902844139     0.00840535944654     0.00002107044472
  6     7.11871506201823     2.99499277706454     4.99999986888626    -0.08000816356552     0.00906056523964     0.00000109604107
  6     4.98310037255545     4.22799051999888     4.99999986888626     0.02001201864457    -0.02487003171745    -0.00001566582841
  6     7.83058605564813     4.22799051999888     4.99999986888626    -0.01921091655689    -0.02077338924345     0.00001002499634
  6     5.69627586173166     5.45078381021502     4.99982815729175     0.00015138594856    -0.00010605142221     0.00000423298620
  6     7.11930793687687     5.45530384029723     4.99991016879958    -0.00013369811335    -0.00011370481245     0.00001168795521
  6     4.98020690404507     6.68534404323071     4.99941724546610    -0.00014024601389     0.00009853976143    -0.00002227986935
  6     7.83249624035118     6.69669580277189     4.99970941146272     0.00002920571508     0.00010467192224    -0.00000640617109
  6     5.69231538933304     7.91582591230527     4.99884914491712     0.00018887811208    -0.00001801853726    -0.00001816971533
  6     7.12229025118739     7.93267586001677     4.99925065959083    -0.00004981317693    -0.00014490418844     0.00000802188680
  6     4.97771153306224     9.14082411608070     4.99617437376093    -0.00001796184548     0.00005049347829    -0.00009459023412
  6     7.83741009652825     9.16817239108010     4.99935659112177    -0.00021269810811    -0.00003857875596    -0.00006211529309
  6     5.70290597956724    10.35831484974415     4.99324331664279     0.00035940698486    -0.00023930544996     0.00000830534570
  6     7.13537108668519    10.41248259637480     4.99914216520028     0.00020865409450    -0.00010607976810    -0.00003095371161
  1     0.90511317179780     2.02921244664111     4.99999986888626     0.00796495880601     0.01059861321786     0.00000337316088
  1     3.36611535284121     2.02921244664111     4.99999986888626    -0.00808728076894     0.01050162303175    -0.00000154957531
  1     5.17634169643681     2.02921244664111     4.99999986888626     0.00810565835413     0.01042286870137     0.00000230546570
  1     7.63734473176677     2.02921244664111     4.99999986888626    -0.00801939236297     0.01059354875223    -0.00000297631842
 78     6.09698579752862    13.20405607972250     5.02735839532414    -0.00029519409593     0.00065264521440    -0.00033085322525
  1     3.95528602504267    14.57537477346598     4.07919003620573    -0.00025746571666    -0.00182414304354     0.00393973852557
  6     4.01096671313535    13.94613977111983     4.98783995427840    -0.00326178988024     0.00727928118141    -0.00003018837259
  6     1.54361120309526    12.89572185604984     4.98635520427218    -0.00167940893044     0.00476748574962    -0.00012578961011
  6     3.58816151027237    11.57626433527949     4.98942038437707    -0.00029572321921     0.00033456653680    -0.00011786220961
  1     3.92750206390797    14.60023878320757     5.87690535342560    -0.00016663603725    -0.00192082142487    -0.00391409494397
  1     1.02610577443313    13.86558823899325     4.96903454467724     0.00368604281224    -0.00496958249496     0.00008011493308
  6     7.76634029070717    11.69937129710088     5.00510850239441     0.00176218837716    -0.00301786405025    -0.00014899544519
  6     5.01672594504948    11.59126389834572     4.98293207810711    -0.00205999974358    -0.00317126255699     0.00010891435708
  6     2.95295846215902    12.84000528792249     4.98813126598848    -0.00133767088353     0.00168358522487    -0.00002814746853
  6     0.69492109439324    11.71151839741065     4.99482716388762    -0.00025677596668     0.00070361112418     0.00002548295489
  8     7.23203360866632    14.83343252569690     5.09334605051979     0.00476017251007     0.01158437932869     0.00856618457639
  1     7.36959595302808    15.12302113982619     6.02693771840918    -0.00110873058059    -0.00207493802748    -0.00793926798126
