CRYSTAL
PRIMVEC
 9.86398064105027 0.00000000000000 0.00000000000000
 0.00000000000000 29.99999507430976 0.00000000000000
 0.00000000000000 0.00000000000000 15.50000271584972
PRIMCOORD
 51 1
  6     0.71187149000000     2.92123941900000     5.00000000000000     0.00000000000000     0.00000000000000     0.00000000000000
  6     0.71192727400000     4.35971060100000     4.99948082100000     0.00001737603042    -0.00000895730116    -0.00003251273555
  6     1.94486908000000     2.20936792800000     5.00000000000000     0.00000000000000     0.00000000000000     0.00000000000000
  6     1.94475853400000     5.06575761600000     4.99909443600000     0.00000666128409    -0.00000719040737    -0.00001459813322
  6     3.17786667000000     2.92123941900000     5.00000000000000     0.00000000000000     0.00000000000000     0.00000000000000
  6     3.17779507900000     4.35961529200000     4.99968016800000    -0.00000404401361    -0.00000339205814     0.00003723705051
  6     4.41086426000000     2.20936792800000     5.00000000000000     0.00000000000000     0.00000000000000     0.00000000000000
  6     4.41051537000000     5.06546980900000     5.00129088000000    -0.00001418239351     0.00001149898261     0.00003447805057
  6     5.64386185000000     2.92123941900000     5.00000000000000     0.00000000000000     0.00000000000000     0.00000000000000
  6     5.64389301600000     4.35959997200000     5.00200518600000    -0.00000642506834     0.00000310859924    -0.00003019782122
  6     6.87685944000000     2.20936792800000     5.00000000000000     0.00000000000000     0.00000000000000     0.00000000000000
  6     6.87683752800000     5.06607496900000     5.00413819600000     0.00000206924995     0.00000241884926     0.00001025176346
  6     8.10985703000000     2.92123941900000     5.00000000000000     0.00000000000000     0.00000000000000     0.00000000000000
  6     8.10966519900000     4.35975041400000     5.00141221700000     0.00000732268819    -0.00000130391093    -0.00000577311288
  6     9.34285462000000     2.20936792800000     5.00000000000000     0.00000000000000     0.00000000000000     0.00000000000000
  6     9.34311354000000     5.06581021600000     5.00022381300000     0.00000808802721    -0.00000844707515     0.00000965649978
  6     0.71128508100000     7.20545631500000     4.99569927900000    -0.00000462982866    -0.00001976653379    -0.00000140784586
  6     0.71141971600000     8.63790984100000     4.99051815000000     0.00000641561972    -0.00002435856793    -0.00001473986267
  6     1.94470619600000     6.49762180400000     4.99689940900000    -0.00001452254419    -0.00000526288686     0.00001679021537
  6     1.94426857500000     9.34170002000000     4.98954760900000    -0.00001603432497    -0.00000457313688    -0.00000119997600
  6     3.17849969200000     7.20545248800000     4.99790641400000    -0.00002307355426     0.00000996830456     0.00000102045203
  6     3.17867212500000     8.63776547100000     4.99426883900000    -0.00001364382160     0.00000173854791     0.00000454479099
  6     4.41044487300000     6.49715084200000     5.00333651900000    -0.00002987656780     0.00000791795187    -0.00001969094475
  6     4.40818719000000     9.34650557600000     5.00313913400000    -0.00000908958198     0.00000193696913     0.00002437746519
  6     5.64364732300000     7.20603365300000     5.01286845700000    -0.00001655399962     0.00000658569505    -0.00003362767388
  6     5.64284305000000     8.63656308400000     5.02357125100000    -0.00000386448964     0.00000623609575     0.00000517784920
  6     6.87694356600000     6.49814313500000     5.01026696700000    -0.00001812247218     0.00000821085940     0.00004067635180
  6     6.87669854500000     9.33623056000000     5.03231097100000     0.00000207869858     0.00001223597575     0.00003069859861
  6     8.10966317100000     7.20609456500000     5.00895658600000    -0.00000031180479     0.00000243774652    -0.00001713036604
  6     8.11007590700000     8.63713723800000     5.01537838200000     0.00001772562973     0.00000096376025    -0.00002074919130
  6     9.34317055600000     6.49733593000000     5.00041561200000     0.00000238105474    -0.00001542961266    -0.00000689749984
  6     9.34487300700000     9.34748084500000     4.99357739300000     0.00001991771187     0.00000377000334    -0.00000993995867
  1     1.94450233900000     1.10952337400000     5.00000000000000     0.00000000000000     0.00000000000000     0.00000000000000
  1     4.41049752000000     1.10952337400000     5.00000000000000     0.00000000000000     0.00000000000000     0.00000000000000
  1     6.87649270100000     1.10952337400000     5.00000000000000     0.00000000000000     0.00000000000000     0.00000000000000
  1     9.34248788200000     1.10952337400000     5.00000000000000     0.00000000000000     0.00000000000000     0.00000000000000
  1     5.61914986400000    12.57512812000000     5.22812539400000    -0.00000075589039     0.00000598098274     0.00001483434897
  6     4.39962684000000    10.78834655700000     5.00002130800000    -0.00001023286620    -0.00000475266085    -0.00001116828056
  1     3.17039343700000    12.56374225200000     5.00585955300000     0.00004005274223    -0.00004339755722     0.00000194641776
  6     9.35237793800000    10.78684573700000     4.98335223000000     0.00002961200617     0.00000994940730     0.00000274955131
  1     8.13229798500000    12.57597899700000     5.18214996800000    -0.00000040629109    -0.00003277729719    -0.00002215703716
  6     6.87578272900000    10.78704889800000     5.04497725200000    -0.00000101100340     0.00000867384227    -0.00000034959931
  6     5.63364303400000    11.49899464800000     5.01948279400000    -0.00000592429096     0.00002467982135     0.00000088817121
  1     6.06132644100000    11.84605754700000     1.66660633100000     0.00000531013001    -0.00000263616775     0.00000809747584
  6     8.11431801900000    11.49822513000000     4.98057583100000     0.00001745161946    -0.00002026731118     0.00001323753052
 78     6.84416831100000    11.53074441900000     2.99203609200000    -0.00000212594173     0.00000086927395    -0.00001209424630
  1     7.86296739900000    11.98721523300000     1.89694602100000     0.00000756835257     0.00000091651710    -0.00000506446564
  1     0.71345495000000    12.56243527900000     4.99443975400000     0.00002856320825     0.00005127771457    -0.00000159681846
  6     3.17232308800000    11.46609226500000     5.00737471500000    -0.00000234326022    -0.00003891890664    -0.00001999330091
  6     1.94336680400000    10.78038205700000     4.99866640300000    -0.00001392728050    -0.00000582980466     0.00001962480434
  6     0.71206714800000    11.46481611700000     4.99847498900000     0.00001168795521     0.00003548905398     0.00000686915395
