CRYSTAL
PRIMVEC
 8.54286592742127 0.00000000000000 0.00000000000000
 0.00000000000000 29.99999936305714 0.00000000000000
 0.00000000000000 0.00000000000000 15.49999653852868
PRIMCOORD
 45 1
  6     1.42374298100000     2.99499287600000     5.00000000000000     0.00000000000000     0.00000000000000     0.00000000000000
  6     2.84748596200000     2.99499287600000     5.00000000000000     0.00000000000000     0.00000000000000     0.00000000000000
  6     0.71187149100000     4.22799046600000     5.00000000000000     0.00000000000000     0.00000000000000     0.00000000000000
  6     3.55935745300000     4.22799046600000     5.00000000000000     0.00000000000000     0.00000000000000     0.00000000000000
  6     1.42580544000000     5.44650049800000     4.98979769200000    -0.00001799019137     0.00001741382494    -0.00000410070538
  6     2.84903097300000     5.45803048000000     4.98876740400000    -0.00002266726318    -0.00000015117808     0.00003113323558
  6     0.71177840000000     6.68020241400000     4.97601971200000    -0.00001211314356     0.00004328417366    -0.00002703253020
  6     3.56255787600000     6.70083680700000     4.97638901200000    -0.00000635892794     0.00000626444164     0.00003375050607
  6     1.42625109900000     7.89832221100000     4.96191060900000     0.00001241549971     0.00002615380762    -0.00002238380428
  6     2.86011227000000     7.94470595700000     4.96041016000000     0.00000905178746    -0.00001461703048     0.00000634003068
  6     0.69027884900000     9.10406877800000     4.94853873400000     0.00003639612245     0.00001795239685    -0.00001963425297
  6     3.56770874600000     9.18997280700000     4.95587617900000    -0.00000942973266     0.00000156847257    -0.00002321528371
  6     1.38377251600000    10.30704915600000     4.96859133100000     0.00001474931130     0.00003071749587     0.00002520894462
  6     2.80161143100000    10.41023260100000     5.01472446000000    -0.00000070864724    -0.00000531013001     0.00001150843124
  6     5.69497192400000     2.99499287600000     5.00000000000000     0.00000000000000     0.00000000000000     0.00000000000000
  6     7.11871490500000     2.99499287600000     5.00000000000000     0.00000000000000     0.00000000000000     0.00000000000000
  6     4.98310043400000     4.22799046600000     5.00000000000000     0.00000000000000     0.00000000000000     0.00000000000000
  6     7.83058639500000     4.22799046600000     5.00000000000000     0.00000000000000     0.00000000000000     0.00000000000000
  6     5.69303490500000     5.45732371500000     4.99839713300000     0.00000459203414    -0.00000751166079     0.00004495658115
  6     7.11629150800000     5.45456209700000     4.99368628200000     0.00001651620510    -0.00000309915061    -0.00001559968800
  6     4.97844948400000     6.69872015000000     4.99042465600000     0.00001329422230    -0.00000822975666     0.00002276174947
  6     7.82907481900000     6.69111642000000     4.97578410800000     0.00000221097940    -0.00000458258551     0.00002245939332
  6     5.68604617900000     7.93492432200000     4.97271044700000     0.00000479045537    -0.00000143619175     0.00000879667445
  6     7.10829805300000     7.92201169000000     4.96018386300000    -0.00000157792120    -0.00001156512302     0.00001543906129
  6     4.99396616800000     9.18775298500000     4.92584981600000    -0.00002901674248     0.00001429577707     0.00002417904396
  6     7.82362179900000     9.14719677900000     4.94932033900000     0.00004713921467    -0.00003138834859    -0.00002968759521
  6     5.73676375400000    10.40675260700000     4.83631367900000    -0.00001435246885    -0.00001786735918     0.00003298516705
  6     7.15819951700000    10.41149478600000     4.91897071800000     0.00000236215748    -0.00002739157814     0.00002914902330
  1     0.90511317300000     2.02921292800000     5.00000000000000     0.00000000000000     0.00000000000000     0.00000000000000
  1     3.36611577100000     2.02921292800000     5.00000000000000     0.00000000000000     0.00000000000000     0.00000000000000
  1     5.17634211700000     2.02921292800000     5.00000000000000     0.00000000000000     0.00000000000000     0.00000000000000
  1     7.63734470500000     2.02921292800000     5.00000000000000     0.00000000000000     0.00000000000000     0.00000000000000
  1     1.74732087800000    13.14245072800000     6.16829786100000     0.00003530953001     0.00001044073606    -0.00000211649310
  1     6.61826355700000    12.94462594700000     6.15920555500000    -0.00000220153077    -0.00000888171212     0.00003640557108
  1     4.30527759500000    13.86312909300000     5.75802917700000    -0.00006365541976    -0.00000343930129     0.00003212534172
 78     4.88234064700000    12.46588728900000     5.27891074100000    -0.00001250053738    -0.00000657624642    -0.00001073364359
  1     7.92130343200000    13.79145104800000     5.32454115800000     0.00000795574639     0.00000057636643     0.00001813192081
  6     7.91480980300000    11.63151282700000     5.01212527700000    -0.00000171020202    -0.00002960255754    -0.00001700753385
  6     3.11366996900000    11.77167669100000     5.18549232600000     0.00001221707849    -0.00000533847590    -0.00002207199949
  6     7.23028969900000    12.94286957900000     5.19251408300000    -0.00000074644176    -0.00000119997600     0.00003348594443
  6     0.74964489300000    11.55332419700000     5.04512715200000    -0.00000498887660     0.00001459813322    -0.00000686915395
  1     5.29657177800000    11.14048686400000     4.05405110200000    -0.00007572132017     0.00001934134544     0.00002590814324
  6     1.83098990200000    12.58383707300000     5.21289406400000     0.00001690359893    -0.00000318418828     0.00000577311288
  1     1.83854400300000    13.35259126000000     4.41418940800000     0.00002511445832     0.00000038739383     0.00001927520503
  1     6.58011480600000    13.24629493000000     4.31659065000000    -0.00002117437965     0.00001806578041     0.00005159896799
