CRYSTAL
PRIMVEC
     8.5428654021    0.0000000000    0.0000000000
     0.0000000000   29.9999975181    0.0000000000
     0.0000000000    0.0000000000   15.4999955853
PRIMCOORD
 45 1
         0.0000000000     0.0000000000     0.0000000000      0.0867350100     0.0095600700     0.0006307500
         0.0000000000     0.0000000000     0.0000000000     -0.0867811000     0.0085214700     0.0001858600
         0.0000000000     0.0000000000     0.0000000000      0.0142615000    -0.0227802000    -0.0009396100
         0.0000000000     0.0000000000     0.0000000000     -0.0151207200    -0.0218046300    -0.0001647500
         0.0000000000     0.0000000000     0.0000000000      0.0002024600    -0.0000815300     0.0000657400
         0.0000000000     0.0000000000     0.0000000000     -0.0000891400    -0.0001056500     0.0000483900
         0.0000000000     0.0000000000     0.0000000000     -0.0001023600    -0.0000874900    -0.0000160800
         0.0000000000     0.0000000000     0.0000000000      0.0001326400    -0.0000238100     0.0000357800
         0.0000000000     0.0000000000     0.0000000000      0.0001750900     0.0000538700     0.0000793000
         0.0000000000     0.0000000000     0.0000000000     -0.0002307200    -0.0000612600    -0.0000033900
         0.0000000000     0.0000000000     0.0000000000     -0.0000974400     0.0001396300    -0.0000563900
         0.0000000000     0.0000000000     0.0000000000     -0.0000420900     0.0004041000     0.0000196900
         0.0000000000     0.0000000000     0.0000000000     -0.0005953900    -0.0002810300     0.0003180000
         0.0000000000     0.0000000000     0.0000000000      0.0003754700    -0.0006669700    -0.0002369700
         0.0000000000     0.0000000000     0.0000000000      0.0874048300     0.0088381400     0.0003137900
         0.0000000000     0.0000000000     0.0000000000     -0.0872650600     0.0080771200     0.0005731200
         0.0000000000     0.0000000000     0.0000000000      0.0145435200    -0.0224900100    -0.0001844300
         0.0000000000     0.0000000000     0.0000000000     -0.0140816800    -0.0231316100    -0.0010298700
         0.0000000000     0.0000000000     0.0000000000      0.0001359200     0.0000212200    -0.0000020600
         0.0000000000     0.0000000000     0.0000000000     -0.0001477900    -0.0000918500    -0.0000022700
         0.0000000000     0.0000000000     0.0000000000     -0.0001609800    -0.0001209600     0.0000135300
         0.0000000000     0.0000000000     0.0000000000      0.0001398500    -0.0000812600    -0.0000113700
         0.0000000000     0.0000000000     0.0000000000      0.0003159300     0.0001156800     0.0000078400
         0.0000000000     0.0000000000     0.0000000000     -0.0003294200    -0.0000439800     0.0000845100
         0.0000000000     0.0000000000     0.0000000000     -0.0000416800     0.0002155200     0.0000286500
         0.0000000000     0.0000000000     0.0000000000      0.0001010400     0.0002818000    -0.0001083900
         0.0000000000     0.0000000000     0.0000000000      0.0004431500     0.0006706300    -0.0004320000
         0.0000000000     0.0000000000     0.0000000000     -0.0002869500     0.0005799500     0.0001259700
         0.0000000000     0.0000000000     0.0000000000      0.0083237200     0.0111279300     0.0001284900
         0.0000000000     0.0000000000     0.0000000000     -0.0083683300     0.0112400600     0.0000042800
         0.0000000000     0.0000000000     0.0000000000      0.0083638800     0.0111342000     0.0000376000
         0.0000000000     0.0000000000     0.0000000000     -0.0083908900     0.0111736000     0.0001218100
         0.0000000000     0.0000000000     0.0000000000     -0.0041954300     0.0013500100    -0.0035239200
         0.0000000000     0.0000000000     0.0000000000      0.0033976900    -0.0039474200     0.0005455400
         0.0000000000     0.0000000000     0.0000000000     -0.0028482700    -0.0007730600     0.0014001400
         0.0000000000     0.0000000000     0.0000000000      0.0071408500    -0.0029232000    -0.0039518600
         0.0000000000     0.0000000000     0.0000000000      0.0008444900     0.0019930500     0.0003284700
         0.0000000000     0.0000000000     0.0000000000     -0.0001922400    -0.0029006900    -0.0064214000
         0.0000000000     0.0000000000     0.0000000000      0.0032642600    -0.0030563600    -0.0005982000
         0.0000000000     0.0000000000     0.0000000000      0.0031488200    -0.0049238700    -0.0005137400
         0.0000000000     0.0000000000     0.0000000000      0.0020460100     0.0042317100    -0.0015821600
         0.0000000000     0.0000000000     0.0000000000     -0.0012952300     0.0044836500     0.0013615000
         0.0000000000     0.0000000000     0.0000000000     -0.0017295700     0.0053808000     0.0067209200
         0.0000000000     0.0000000000     0.0000000000     -0.0029401000    -0.0047692600     0.0010852300
         0.0000000000     0.0000000000     0.0000000000     -0.0061635200     0.0155518600     0.0055139800
