CRYSTAL
PRIMVEC
     8.5428654021    0.0000000000    0.0000000000
     0.0000000000   29.9999975181    0.0000000000
     0.0000000000    0.0000000000   15.4999955853
PRIMCOORD
 46 1
         0.0000000000     0.0000000000     0.0000000000      0.0833530700     0.0105369700    -0.0002577400
         0.0000000000     0.0000000000     0.0000000000     -0.0829005300     0.0112789000    -0.0007715800
         0.0000000000     0.0000000000     0.0000000000      0.0172530000    -0.0266495600     0.0003444300
         0.0000000000     0.0000000000     0.0000000000     -0.0197933800    -0.0270718200     0.0011445400
         0.0000000000     0.0000000000     0.0000000000      0.0001743300    -0.0001278700    -0.0000157000
         0.0000000000     0.0000000000     0.0000000000     -0.0001408300    -0.0001600000    -0.0000182200
         0.0000000000     0.0000000000     0.0000000000     -0.0002737100     0.0000263000    -0.0000194600
         0.0000000000     0.0000000000     0.0000000000      0.0002436800    -0.0000006700     0.0000335800
         0.0000000000     0.0000000000     0.0000000000      0.0001108000     0.0001208400     0.0001255600
         0.0000000000     0.0000000000     0.0000000000     -0.0000910900     0.0000450700    -0.0000498100
         0.0000000000     0.0000000000     0.0000000000     -0.0000284200    -0.0002505500    -0.0000389500
         0.0000000000     0.0000000000     0.0000000000      0.0000340600    -0.0000245000     0.0000362200
         0.0000000000     0.0000000000     0.0000000000      0.0004612000    -0.0011215600     0.0004760300
         0.0000000000     0.0000000000     0.0000000000      0.0000716900    -0.0006826700    -0.0005116000
         0.0000000000     0.0000000000     0.0000000000      0.0852838100     0.0098193100    -0.0004967100
         0.0000000000     0.0000000000     0.0000000000     -0.0847218900     0.0107733100    -0.0003605400
         0.0000000000     0.0000000000     0.0000000000      0.0195620900    -0.0207567500     0.0008802600
         0.0000000000     0.0000000000     0.0000000000     -0.0181217100    -0.0228876600     0.0001485900
         0.0000000000     0.0000000000     0.0000000000      0.0002041000    -0.0000049000    -0.0000029000
         0.0000000000     0.0000000000     0.0000000000     -0.0001357200    -0.0001078600    -0.0000081400
         0.0000000000     0.0000000000     0.0000000000     -0.0002918800    -0.0001664500    -0.0000109500
         0.0000000000     0.0000000000     0.0000000000      0.0002825100    -0.0000540000    -0.0000654900
         0.0000000000     0.0000000000     0.0000000000      0.0002431500     0.0001643800    -0.0000538200
         0.0000000000     0.0000000000     0.0000000000     -0.0002529200    -0.0000842900     0.0000495900
         0.0000000000     0.0000000000     0.0000000000     -0.0002373900     0.0000683700    -0.0000059300
         0.0000000000     0.0000000000     0.0000000000      0.0003836800     0.0000924600    -0.0001531000
         0.0000000000     0.0000000000     0.0000000000      0.0003276100     0.0011352100    -0.0003092700
         0.0000000000     0.0000000000     0.0000000000     -0.0003050000     0.0009518300     0.0004056600
         0.0000000000     0.0000000000     0.0000000000      0.0082238600     0.0110932600    -0.0000389900
         0.0000000000     0.0000000000     0.0000000000     -0.0082280600     0.0110942500    -0.0001608900
         0.0000000000     0.0000000000     0.0000000000      0.0082175400     0.0111459200    -0.0000938600
         0.0000000000     0.0000000000     0.0000000000     -0.0081900800     0.0111372800    -0.0000555600
         0.0000000000     0.0000000000     0.0000000000     -0.0047302800     0.0023773500    -0.0023753000
         0.0000000000     0.0000000000     0.0000000000      0.0035472000    -0.0038363200    -0.0002351300
         0.0000000000     0.0000000000     0.0000000000     -0.0011778600    -0.0000445400     0.0004328400
         0.0000000000     0.0000000000     0.0000000000      0.0065529600     0.0058223800     0.0034999600
         0.0000000000     0.0000000000     0.0000000000      0.0004739800     0.0014530600    -0.0002077700
         0.0000000000     0.0000000000     0.0000000000      0.0057697000     0.0012660500    -0.0038511300
         0.0000000000     0.0000000000     0.0000000000      0.0041653600    -0.0030862000    -0.0002429600
         0.0000000000     0.0000000000     0.0000000000      0.0031037700    -0.0051818900    -0.0012322800
         0.0000000000     0.0000000000     0.0000000000      0.0018508300     0.0044418200    -0.0013949300
         0.0000000000     0.0000000000     0.0000000000     -0.0033604400     0.0041722600     0.0020172100
         0.0000000000     0.0000000000     0.0000000000     -0.0002051800     0.0044986600     0.0102645900
         0.0000000000     0.0000000000     0.0000000000     -0.0031657000    -0.0047947500     0.0009689600
         0.0000000000     0.0000000000     0.0000000000     -0.0085983100     0.0083538800    -0.0129275800
         0.0000000000     0.0000000000     0.0000000000     -0.0049436100    -0.0047743100     0.0051382500
