CRYSTAL
PRIMVEC
 9.86398064105027 0.00000000000000 0.00000000000000
 0.00000000000000 29.99999507430976 0.00000000000000
 0.00000000000000 0.00000000000000 15.50000271584972
PRIMCOORD
 50 1
  6     0.71187149000000     2.92123941900000     5.00000000000000     0.00000000000000     0.00000000000000     0.00000000000000
  6     0.71136737000000     4.35552249300000     4.99373963000000     0.00000677466765     0.00000365661978    -0.00001483434897
  6     1.94486908000000     2.20936792800000     5.00000000000000     0.00000000000000     0.00000000000000     0.00000000000000
  6     1.94465622500000     5.06137676800000     4.98062132400000     0.00002779786922    -0.00000982657512     0.00000232436296
  6     3.17786667000000     2.92123941900000     5.00000000000000     0.00000000000000     0.00000000000000     0.00000000000000
  6     3.17771837800000     4.35476095400000     4.98509843700000     0.00003825750254     0.00001937913996    -0.00000758724982
  6     4.41086426000000     2.20936792800000     5.00000000000000     0.00000000000000     0.00000000000000     0.00000000000000
  6     4.40925854800000     5.06117215400000     4.97278274800000     0.00003080253354     0.00002605932132     0.00000549910261
  6     5.64386185000000     2.92123941900000     5.00000000000000     0.00000000000000     0.00000000000000     0.00000000000000
  6     5.64275258300000     4.35652270200000     4.99028905500000     0.00004147003671    -0.00001320918463     0.00000102045203
  6     6.87685944000000     2.20936792800000     5.00000000000000     0.00000000000000     0.00000000000000     0.00000000000000
  6     6.87712996000000     5.07361458400000     4.99593544900000     0.00005186352963    -0.00004298181750    -0.00001103599975
  6     8.10985703000000     2.92123941900000     5.00000000000000     0.00000000000000     0.00000000000000     0.00000000000000
  6     8.11112888800000     4.35691541000000     5.00115801800000     0.00002023896529    -0.00001102655112     0.00000143619175
  6     9.34285462000000     2.20936792800000     5.00000000000000     0.00000000000000     0.00000000000000     0.00000000000000
  6     9.34389574000000     5.06337279600000     4.99582517200000     0.00000152122942     0.00001451309556     0.00002576641379
  6     0.71448248600000     7.19713853900000     4.96939452100000    -0.00001087537304     0.00000283458898    -0.00000218263351
  6     0.71858477600000     8.62133327200000     4.95501419500000    -0.00000043463698    -0.00000296686979    -0.00000534792453
  6     1.94491491900000     6.48503277000000     4.95898001300000    -0.00001399342091    -0.00001009113675    -0.00001903898929
  6     1.94514235500000     9.33223499300000     4.90789728800000    -0.00000385504101    -0.00000006614041     0.00000086927395
  6     3.17626277300000     7.19513994200000     4.92528658500000    -0.00000970374293     0.00001476820856     0.00000356213348
  6     3.17353271700000     8.61967108700000     4.88395972500000    -0.00001012893127     0.00000658569505     0.00001655399962
  6     4.40465774200000     6.48720815000000     4.93857429800000     0.00001113048604     0.00001702643111     0.00001784846192
  6     4.40336295400000     9.33006928100000     4.84488843000000    -0.00001628943798     0.00000438416428     0.00001248164012
  6     5.63434500700000     7.20818310100000     4.94338894100000     0.00001596818456    -0.00000829589707    -0.00001431467433
  6     5.61282176900000     8.61217965100000     4.90771993300000    -0.00000622664712    -0.00000083147943     0.00003289068075
  6     6.87726146700000     6.49290842000000     4.99006538700000    -0.00000099210614    -0.00002891280755    -0.00001868938998
  6     6.87018332700000     9.39243310900000     5.02765848400000    -0.00000933524636     0.00000000944863     0.00002285623577
  6     8.11832043700000     7.21361527100000     5.00242481600000    -0.00001433357159    -0.00000265506501     0.00002585145146
  6     8.14053974700000     8.62144265400000     5.00871075600000    -0.00001224542438    -0.00000128501367     0.00000922186280
  6     9.34838769300000     6.49084621200000     4.99170907300000     0.00000390228416     0.00001345484900     0.00006481760124
  6     9.35470347200000     9.34053654500000     4.98404081900000     0.00000877777719     0.00000037794520     0.00002460423231
  1     1.94450233900000     1.10952337400000     5.00000000000000     0.00000000000000     0.00000000000000     0.00000000000000
  1     4.41049752000000     1.10952337400000     5.00000000000000     0.00000000000000     0.00000000000000     0.00000000000000
  1     6.87649270100000     1.10952337400000     5.00000000000000     0.00000000000000     0.00000000000000     0.00000000000000
  1     9.34248788200000     1.10952337400000     5.00000000000000     0.00000000000000     0.00000000000000     0.00000000000000
  1     6.84162307100000     9.91971492100000     6.07139553400000    -0.00002497272888     0.00000690694847     0.00002849706784
  6     9.38580056200000    10.76921845600000     4.98171445400000     0.00002135390362    -0.00000703922929     0.00004231096478
  6     3.16868019300000    11.44959724900000     4.80082902900000     0.00000307080472     0.00000119997600     0.00003746381763
  1     5.25196459400000    11.36287584400000     4.38088975600000    -0.00000584870192     0.00002618215351     0.00000564083206
  1     8.45500079200000    11.34571993700000     5.04401875400000     0.00000460148277    -0.00001666738318    -0.00003221982802
  6     0.70713791000000    11.45170858100000     4.93208428400000     0.00003187967735    -0.00000768173612    -0.00003217258487
  1     7.09307585200000    12.12951205100000     7.18887078300000     0.00001161236617    -0.00002013503036     0.00001823585574
 78     6.08839882900000    11.68938689400000     6.07832885800000     0.00002372550973     0.00003396782456     0.00002264836592
  1     3.16294271300000    12.54351810900000     4.73027533000000    -0.00001667683181    -0.00000229601707    -0.00001348319489
  6     4.36943070400000    10.76965798500000     4.80088544000000     0.00000844707515     0.00001204700315    -0.00000974153745
  1     6.92385962800000    10.17530519000000     4.24251367700000    -0.00003495048207    -0.00000236215748     0.00001166905795
  1     0.71352640700000    12.54862041600000     4.93181252000000    -0.00001058246551    -0.00000583925329     0.00004514555375
  1     5.51419220800000    13.04995498700000     6.53075271100000    -0.00003682131079     0.00000538571905     0.00001506111609
  6     1.94248581000000    10.76003985300000     4.88668054900000     0.00001348319489    -0.00000472431496     0.00001618550305
