CRYSTAL
PRIMVEC
     9.8639806455    0.0000000000    0.0000000000
     0.0000000000   29.9999950877    0.0000000000
     0.0000000000    0.0000000000   15.5000027228
PRIMCOORD
 50 1
         0.0000000000     0.0000000000     0.0000000000      0.0033065800    -0.0412609900     0.0000021000
         0.0000000000     0.0000000000     0.0000000000     -0.0000519900    -0.0004736500    -0.0000003600
         0.0000000000     0.0000000000     0.0000000000      0.0020505500     0.0325349500    -0.0000003500
         0.0000000000     0.0000000000     0.0000000000      0.0000570000    -0.0000323400    -0.0000006100
         0.0000000000     0.0000000000     0.0000000000     -0.0047400700    -0.0441722600     0.0000020300
         0.0000000000     0.0000000000     0.0000000000     -0.0001748800    -0.0003088500    -0.0000003100
         0.0000000000     0.0000000000     0.0000000000      0.0003111300     0.0322697300    -0.0000005900
         0.0000000000     0.0000000000     0.0000000000      0.0000803600     0.0001704400    -0.0000002800
         0.0000000000     0.0000000000     0.0000000000     -0.0025697100    -0.0477433500     0.0000033100
         0.0000000000     0.0000000000     0.0000000000      0.0000193400    -0.0002941800    -0.0000007200
         0.0000000000     0.0000000000     0.0000000000     -0.0020213700     0.0329845200    -0.0000010400
         0.0000000000     0.0000000000     0.0000000000      0.0000067900     0.0000090500    -0.0000011700
         0.0000000000     0.0000000000     0.0000000000      0.0038104800    -0.0483541500     0.0000032300
         0.0000000000     0.0000000000     0.0000000000      0.0002044400    -0.0004755900    -0.0000004400
         0.0000000000     0.0000000000     0.0000000000     -0.0005613000     0.0334905200    -0.0000006500
         0.0000000000     0.0000000000     0.0000000000     -0.0000001400    -0.0000845400    -0.0000001300
         0.0000000000     0.0000000000     0.0000000000      0.0000065200     0.0001021100     0.0000000100
         0.0000000000     0.0000000000     0.0000000000     -0.0001091100    -0.0000220200     0.0000002900
         0.0000000000     0.0000000000     0.0000000000      0.0000736500    -0.0002526000     0.0000011900
         0.0000000000     0.0000000000     0.0000000000     -0.0003664500     0.0000338900     0.0000000500
         0.0000000000     0.0000000000     0.0000000000     -0.0000478200     0.0000470900     0.0000000400
         0.0000000000     0.0000000000     0.0000000000     -0.0000850300    -0.0002978900     0.0000005100
         0.0000000000     0.0000000000     0.0000000000      0.0000807100    -0.0001010200    -0.0000003700
         0.0000000000     0.0000000000     0.0000000000     -0.0002344700    -0.0059326200    -0.0000007900
         0.0000000000     0.0000000000     0.0000000000      0.0001039400    -0.0002116700     0.0000001300
         0.0000000000     0.0000000000     0.0000000000      0.0000909800     0.0000799200     0.0000011000
         0.0000000000     0.0000000000     0.0000000000     -0.0001156500    -0.0001624600    -0.0000009800
         0.0000000000     0.0000000000     0.0000000000      0.0002809100    -0.0001365100    -0.0000004700
         0.0000000000     0.0000000000     0.0000000000      0.0000128400     0.0000493100     0.0000006200
         0.0000000000     0.0000000000     0.0000000000     -0.0000272700     0.0000366900    -0.0000001200
         0.0000000000     0.0000000000     0.0000000000     -0.0000765400    -0.0001467100     0.0000001800
         0.0000000000     0.0000000000     0.0000000000     -0.0000911500    -0.0000736400    -0.0000000200
         0.0000000000     0.0000000000     0.0000000000      0.0001580900     0.0098287000    -0.0000001400
         0.0000000000     0.0000000000     0.0000000000     -0.0001992200     0.0100105500    -0.0000002200
         0.0000000000     0.0000000000     0.0000000000     -0.0000450300     0.0100517100    -0.0000002000
         0.0000000000     0.0000000000     0.0000000000      0.0003689700     0.0099366600    -0.0000002600
         0.0000000000     0.0000000000     0.0000000000      0.0046876100    -0.0005495700     0.0000000700
         0.0000000000     0.0000000000     0.0000000000     -0.0035687300     0.0068273700     0.0000002500
         0.0000000000     0.0000000000     0.0000000000      0.0012983100     0.0028912500    -0.0000049300
         0.0000000000     0.0000000000     0.0000000000     -0.0031112500    -0.0034723300    -0.0000000700
         0.0000000000     0.0000000000     0.0000000000     -0.0003224900     0.0013305600     0.0000006800
         0.0000000000     0.0000000000     0.0000000000     -0.0053980900     0.0041586600     0.0000003400
         0.0000000000     0.0000000000     0.0000000000     -0.0005166500     0.0049300800     0.0000005400
         0.0000000000     0.0000000000     0.0000000000      0.0021944500    -0.0016491700    -0.0043998200
         0.0000000000     0.0000000000     0.0000000000     -0.0012636300     0.0009570400    -0.0000004000
         0.0000000000     0.0000000000     0.0000000000      0.0007464500     0.0003030100     0.0000005800
         0.0000000000     0.0000000000     0.0000000000      0.0000357000    -0.0062235800    -0.0000003500
         0.0000000000     0.0000000000     0.0000000000      0.0018858400     0.0039403000     0.0000003700
         0.0000000000     0.0000000000     0.0000000000      0.0021947700    -0.0016493300     0.0043988300
         0.0000000000     0.0000000000     0.0000000000      0.0016316100     0.0071068700    -0.0000006400
