CRYSTAL
PRIMVEC
 9.86398064105027 0.00000000000000 0.00000000000000
 0.00000000000000 29.99999507430976 0.00000000000000
 0.00000000000000 0.00000000000000 15.50000271584972
PRIMCOORD
 50 1
  6     0.71187149000000     2.92123941900000     5.00000000000000     0.00000000000000     0.00000000000000     0.00000000000000
  6     0.71472170500000     4.36123147400000     4.99971459500000     0.00001368161612    -0.00001038404428    -0.00003750161215
  6     1.94486908000000     2.20936792800000     5.00000000000000     0.00000000000000     0.00000000000000     0.00000000000000
  6     1.94829540300000     5.07669412400000     5.01325774100000     0.00000822030803     0.00001062026003     0.00001509891061
  6     3.17786667000000     2.92123941900000     5.00000000000000     0.00000000000000     0.00000000000000     0.00000000000000
  6     3.17434149100000     4.36077378700000     5.01060041700000     0.00000684080806     0.00000048188013    -0.00003415679716
  6     4.41086426000000     2.20936792800000     5.00000000000000     0.00000000000000     0.00000000000000     0.00000000000000
  6     4.40482466300000     5.06956848200000     5.01170851800000     0.00000446920195    -0.00000438416428     0.00000613216082
  6     5.64386185000000     2.92123941900000     5.00000000000000     0.00000000000000     0.00000000000000     0.00000000000000
  6     5.64102939100000     4.35772232100000     4.99958236400000     0.00000009448630     0.00000616995534     0.00000099210614
  6     6.87685944000000     2.20936792800000     5.00000000000000     0.00000000000000     0.00000000000000     0.00000000000000
  6     6.87551951500000     5.05717921100000     4.98839994200000     0.00000177634242     0.00001193361959     0.00000009448630
  6     8.10985703000000     2.92123941900000     5.00000000000000     0.00000000000000     0.00000000000000     0.00000000000000
  6     8.11294193500000     4.35527793400000     4.99048558100000     0.00000363772252    -0.00000611326356     0.00004174404698
  6     9.34285462000000     2.20936792800000     5.00000000000000     0.00000000000000     0.00000000000000     0.00000000000000
  6     9.34643981900000     5.06302521000000     4.98749586200000     0.00001264226683    -0.00002916792056    -0.00003968424566
  6     0.71352152800000     7.21591518700000     4.99843534200000    -0.00000531957864    -0.00001449419830    -0.00000816361625
  6     0.70775445900000     8.64726358600000     5.01586496900000     0.00000783291420    -0.00001031790387    -0.00002192082141
  6     1.95330271500000     6.51387652000000     5.03186946900000     0.00000577311288     0.00000247554104     0.00002441525971
  6     1.92962982900000     9.37996224300000     5.15868628100000     0.00001484379760    -0.00002105154746     0.00000863604775
  6     3.18229766400000     7.23803922700000     5.06313172000000     0.00001295407162     0.00000469596907     0.00000866439364
  6     3.20247697500000     8.68853318000000     5.13006332200000     0.00002422628711    -0.00000928800321     0.00001991771187
  6     4.40157937400000     6.49656863200000     5.02819115600000    -0.00000017952397    -0.00000285348624     0.00000542351357
  6     4.45034274400000     9.39273440800000     5.09904306700000     0.00001429577707     0.00001634612976    -0.00002910178015
  6     5.63955055400000     7.18766307200000     4.99783948200000    -0.00000316529102     0.00000565028069    -0.00000216373625
  6     5.63576290600000     8.60441755400000     4.99519851700000     0.00001171630110     0.00000475266085     0.00001903898929
  6     6.87261771800000     6.48036202900000     4.97295642800000     0.00000766283886     0.00001029900661    -0.00000194641776
  6     6.86982571200000     9.30810040900000     4.91293687900000     0.00000936359225    -0.00000159681846     0.00003735043407
  6     8.10767883600000     7.18872399700000     4.95058752700000     0.00002024841392    -0.00000358103074     0.00002499162614
  6     8.10128409500000     8.60887109500000     4.91571657000000     0.00001869883861    -0.00000033070205    -0.00001073364359
  6     9.34762915200000     6.49387543700000     4.97202846300000     0.00000602822589    -0.00003014112944    -0.00001479655445
  6     9.32291491700000     9.32749403300000     4.94117479100000     0.00001702643111     0.00001550520170    -0.00004635497838
  1     1.94450233900000     1.10952337400000     5.00000000000000     0.00000000000000     0.00000000000000     0.00000000000000
  1     4.41049752000000     1.10952337400000     5.00000000000000     0.00000000000000     0.00000000000000     0.00000000000000
  1     6.87649270100000     1.10952337400000     5.00000000000000     0.00000000000000     0.00000000000000     0.00000000000000
  1     9.34248788200000     1.10952337400000     5.00000000000000     0.00000000000000     0.00000000000000     0.00000000000000
  6     6.78898577300000    10.73700944900000     4.86552311600000    -0.00002276174947    -0.00000212594173     0.00002668293089
  1     3.11533767100000    11.35278649600000     6.96879251900000     0.00000438416428    -0.00001052577373     0.00002888446166
  6     3.32588699800000    12.87259566000000     5.45588370000000    -0.00002599318091     0.00000237160611     0.00000146453764
  6     0.61460439400000    11.44542069700000     5.15438951300000     0.00001019507168    -0.00001372885927    -0.00001031790387
  6     2.94366275900000    11.59192894500000     5.90402423300000    -0.00001476820856    -0.00000849431830     0.00002159011937
  6     1.83153007100000    10.80190993600000     5.33037589100000     0.00000949587307    -0.00003323083143    -0.00000937304088
 78     4.90130195000000    11.43118073300000     5.07637402200000    -0.00003455363961     0.00000214483899    -0.00004292512572
  1     2.92061438700000    13.26914820700000     4.51581897100000    -0.00001350209215    -0.00001624219483    -0.00001774452699
  1     3.69526113100000    13.62248789600000     6.16131296000000    -0.00000207869858    -0.00000551799987     0.00000853211282
  6     9.26333798400000    10.75042471500000     4.94632637500000    -0.00000526288686     0.00001170685247     0.00000435581839
  1     8.01854890300000    12.51530756800000     4.87658851100000    -0.00000069919861     0.00000533847590     0.00000697308888
  1     5.61423444200000    12.85965376700000     4.79928377700000     0.00000959980800    -0.00000476210948    -0.00000377945197
  6     8.00709681900000    11.41846165700000     4.87748306000000    -0.00002430187615     0.00001093206482    -0.00000051022602
  1     0.57711000900000    12.53444423900000     5.28577018800000     0.00002082478034    -0.00001933189681    -0.00000958091074
