CRYSTAL
PRIMVEC
     9.8639806455    0.0000000000    0.0000000000
     0.0000000000   29.9999950877    0.0000000000
     0.0000000000    0.0000000000   15.5000027228
PRIMCOORD
 51 1
         0.0000000000     0.0000000000     0.0000000000      0.0000000000     0.0000000000     0.0000000000
         0.0000000000     0.0000000000     0.0000000000      0.0000000000     0.0000000000     0.0000000000
         0.0000000000     0.0000000000     0.0000000000      0.0000000000     0.0000000000     0.0000000000
         0.0000000000     0.0000000000     0.0000000000      0.0000000000     0.0000000000     0.0000000000
         0.0000000000     0.0000000000     0.0000000000      0.0000000000     0.0000000000     0.0000000000
         0.0000000000     0.0000000000     0.0000000000      0.0000000000     0.0000000000     0.0000000000
         0.0000000000     0.0000000000     0.0000000000      0.0000000000     0.0000000000     0.0000000000
         0.0000000000     0.0000000000     0.0000000000      0.0000000000     0.0000000000     0.0000000000
         0.0000000000     0.0000000000     0.0000000000      0.0000000000     0.0000000000     0.0000000000
         0.0000000000     0.0000000000     0.0000000000      0.0000000000     0.0000000000     0.0000000000
         0.0000000000     0.0000000000     0.0000000000      0.0000000000     0.0000000000     0.0000000000
         0.0000000000     0.0000000000     0.0000000000      0.0000000000     0.0000000000     0.0000000000
         0.0000000000     0.0000000000     0.0000000000      0.0000000000     0.0000000000     0.0000000000
         0.0000000000     0.0000000000     0.0000000000      0.0000000000     0.0000000000     0.0000000000
         0.0000000000     0.0000000000     0.0000000000      0.0000000000     0.0000000000     0.0000000000
         0.0000000000     0.0000000000     0.0000000000      0.0000000000     0.0000000000     0.0000000000
         0.0000000000     0.0000000000     0.0000000000      0.0000000000     0.0000000000     0.0000000000
         0.0000000000     0.0000000000     0.0000000000      0.0000000000     0.0000000000     0.0000000000
         0.0000000000     0.0000000000     0.0000000000      0.0000000000     0.0000000000     0.0000000000
         0.0000000000     0.0000000000     0.0000000000      0.0000000000     0.0000000000     0.0000000000
         0.0000000000     0.0000000000     0.0000000000      0.0000000000     0.0000000000     0.0000000000
         0.0000000000     0.0000000000     0.0000000000      0.0000000000     0.0000000000     0.0000000000
         0.0000000000     0.0000000000     0.0000000000      0.0000000000     0.0000000000     0.0000000000
         0.0000000000     0.0000000000     0.0000000000      0.0000000000     0.0000000000     0.0000000000
         0.0000000000     0.0000000000     0.0000000000      0.0000000000     0.0000000000     0.0000000000
         0.0000000000     0.0000000000     0.0000000000      0.0000000000     0.0000000000     0.0000000000
         0.0000000000     0.0000000000     0.0000000000      0.0000000000     0.0000000000     0.0000000000
         0.0000000000     0.0000000000     0.0000000000      0.0000000000     0.0000000000     0.0000000000
         0.0000000000     0.0000000000     0.0000000000      0.0000000000     0.0000000000     0.0000000000
         0.0000000000     0.0000000000     0.0000000000      0.0000000000     0.0000000000     0.0000000000
         0.0000000000     0.0000000000     0.0000000000      0.0000000000     0.0000000000     0.0000000000
         0.0000000000     0.0000000000     0.0000000000      0.0000000000     0.0000000000     0.0000000000
         0.0000000000     0.0000000000     0.0000000000      0.0000000000     0.0000000000     0.0000000000
         0.0000000000     0.0000000000     0.0000000000      0.0000000000     0.0000000000     0.0000000000
         0.0000000000     0.0000000000     0.0000000000      0.0000000000     0.0000000000     0.0000000000
         0.0000000000     0.0000000000     0.0000000000      0.0000000000     0.0000000000     0.0000000000
         0.0000000000     0.0000000000     0.0000000000      0.0000000000     0.0000000000     0.0000000000
         0.0000000000     0.0000000000     0.0000000000      0.0000000000     0.0000000000     0.0000000000
         0.0000000000     0.0000000000     0.0000000000      0.0000000000     0.0000000000     0.0000000000
         0.0000000000     0.0000000000     0.0000000000      0.0000000000     0.0000000000     0.0000000000
         0.0000000000     0.0000000000     0.0000000000      0.0000000000     0.0000000000     0.0000000000
         0.0000000000     0.0000000000     0.0000000000      0.0000000000     0.0000000000     0.0000000000
         0.0000000000     0.0000000000     0.0000000000      0.0000000000     0.0000000000     0.0000000000
         0.0000000000     0.0000000000     0.0000000000      0.0000000000     0.0000000000     0.0000000000
         0.0000000000     0.0000000000     0.0000000000      0.0000000000     0.0000000000     0.0000000000
         0.0000000000     0.0000000000     0.0000000000      0.0000000000     0.0000000000     0.0000000000
         0.0000000000     0.0000000000     0.0000000000      0.0000000000     0.0000000000     0.0000000000
         0.0000000000     0.0000000000     0.0000000000      0.0000000000     0.0000000000     0.0000000000
         0.0000000000     0.0000000000     0.0000000000      0.0000000000     0.0000000000     0.0000000000
         0.0000000000     0.0000000000     0.0000000000      0.0000000000     0.0000000000     0.0000000000
         0.0000000000     0.0000000000     0.0000000000      0.0000000000     0.0000000000     0.0000000000
