CRYSTAL
PRIMVEC
 9.86398064105027 0.00000000000000 0.00000000000000
 0.00000000000000 29.99999507430976 0.00000000000000
 0.00000000000000 0.00000000000000 15.50000271584972
PRIMCOORD
 44 1
  6     0.71187149000000     2.92123941900000     5.00000000000000     0.00000000000000     0.00000000000000     0.00000000000000
  6     0.70520337600000     4.36703111400000     5.00000871500000    -0.00001743272220     0.00003309855061    -0.00000015117808
  6     1.94486908000000     2.20936792800000     5.00000000000000     0.00000000000000     0.00000000000000     0.00000000000000
  6     1.93863626000000     5.06812304100000     5.00001807300000     0.00002091926664     0.00003967479703    -0.00000032125342
  6     3.17786667000000     2.92123941900000     5.00000000000000     0.00000000000000     0.00000000000000     0.00000000000000
  6     3.17042737600000     4.35210485500000     5.00001324200000     0.00001460758185    -0.00001364382160    -0.00000009448630
  6     4.41086426000000     2.20936792800000     5.00000000000000     0.00000000000000     0.00000000000000     0.00000000000000
  6     4.40394859800000     5.04432949200000     5.00001036100000     0.00005538786859     0.00006955136483    -0.00000039684246
  6     5.64386185000000     2.92123941900000     5.00000000000000     0.00000000000000     0.00000000000000     0.00000000000000
  6     5.64805669600000     4.35398191800000     5.00000286500000     0.00000190862324    -0.00002646561240    -0.00000014172945
  6     6.87685944000000     2.20936792800000     5.00000000000000     0.00000000000000     0.00000000000000     0.00000000000000
  6     6.88868158000000     5.06054595100000     4.99999577000000     0.00001901064340    -0.00001452254419    -0.00000034959931
  6     8.10985703000000     2.92123941900000     5.00000000000000     0.00000000000000     0.00000000000000     0.00000000000000
  6     8.11829380600000     4.36145495300000     4.99999850200000     0.00000127556504    -0.00000224877392    -0.00000015117808
  6     9.34285462000000     2.20936792800000     5.00000000000000     0.00000000000000     0.00000000000000     0.00000000000000
  6     9.34244617500000     5.09046701000000     5.00000213800000    -0.00002118382828     0.00003866379363    -0.00000023621575
  6     0.71594038700000     7.23755135100000     4.99999145000000     0.00004789510506     0.00001829254752    -0.00000025511301
  6     0.72991452000000     8.67690259300000     4.99997815600000     0.00002558688982    -0.00001233991067    -0.00000001889726
  6     1.93970523900000     6.49812638000000     5.00000872200000     0.00001080923263    -0.00000412905127    -0.00000043463698
  6     1.99337167600000     9.37793713100000     4.99997868800000     0.00001164071206     0.00001726264686    -0.00000010393493
  6     3.17893953600000     7.18371911600000     5.00000281000000     0.00003540401631     0.00006696244024    -0.00000051967465
  6     3.19380681000000     8.61409164200000     4.99998340200000    -0.00000670852724     0.00005837363564    -0.00000034959931
  6     4.39858355400000     6.45992775400000     5.00000581300000     0.00002561523571     0.00000491328756    -0.00000046298287
  6     4.43456105500000     9.25475952800000     4.99997684500000     0.00002259167414     0.00000243774652    -0.00000059526368
  6     5.64341253700000     7.14100509300000     4.99998786900000     0.00003152062941    -0.00001843427697    -0.00000039684246
  6     5.63475055200000     8.52660704300000     4.99997639100000     0.00003170960201     0.00002720260554    -0.00000050077739
  6     6.89339561600000     6.48676584700000     4.99998663200000     0.00001665793455    -0.00003622604711    -0.00000028345890
  6     6.77158195000000     9.36625422800000     4.99997604600000     0.00002837423565    -0.00003105764654    -0.00000043463698
  6     8.10009532600000     7.26233459500000     4.99997985600000    -0.00000933524636    -0.00001878387628    -0.00000021731849
  6     8.07556548400000     8.71687248300000     4.99997573300000     0.00004090311892    -0.00002313024604    -0.00000025511301
  6     9.34139533700000     6.53731144600000     4.99999223300000     0.00000452589373     0.00001747996535    -0.00000015117808
  6     9.35156318000000     9.39794704600000     4.99997642900000     0.00003894725253     0.00000047243150    -0.00000001889726
  1     1.94450233900000     1.10952337400000     5.00000000000000     0.00000000000000     0.00000000000000     0.00000000000000
  1     4.41049752000000     1.10952337400000     5.00000000000000     0.00000000000000     0.00000000000000     0.00000000000000
  1     6.87649270100000     1.10952337400000     5.00000000000000     0.00000000000000     0.00000000000000     0.00000000000000
  1     9.34248788200000     1.10952337400000     5.00000000000000     0.00000000000000     0.00000000000000     0.00000000000000
  1     3.51086737200000    12.52408175600000     4.99997903600000    -0.00003205920132    -0.00006792620049     0.00000090706847
  6     6.30276709400000    10.75045800400000     4.99998868900000     0.00000882502034    -0.00001156512302     0.00000018897260
  6     4.67819750800000    10.65507822600000     4.99997876400000     0.00003124661914     0.00000866439364    -0.00000007558904
  6     3.48105781200000    11.42645302500000     4.99997939900000     0.00001873663313    -0.00006614985806     0.00000044408561
 78     7.84430197700000    11.94020435800000     5.00001484200000     0.00002983877328     0.00001192417096     0.00000062360957
  6     0.81592201600000    11.47757433100000     4.99998833800000     0.00001380444831     0.00002625774255     0.00000049132876
  6     2.11681276800000    10.82022010300000     4.99997942400000     0.00001206590041     0.00000807857858     0.00000020786986
  6     9.52750379100000    10.81030774100000     4.99998550900000     0.00004678016673     0.00002338535905     0.00000032125342
